energy: -29.899317796075 gnorm: 0.000765739986 xtb: 6.4.1 (afa7bdf)
 OpenBabel11022218133D

 18 19  0  0  0  0  0  0  0  0999 V2000
    3.2500   -0.0199    1.1881 C   0  0  0  0  0  0  0  0  0  0  0  0
    2.0463    0.1964    0.3315 C   0  0  0  0  0  0  0  0  0  0  0  0
    0.7611   -0.1445    0.5811 C   0  0  0  0  0  0  0  0  0  0  0  0
   -0.1536    0.1993   -0.4625 C   0  0  0  0  0  0  0  0  0  0  0  0
   -1.5672   -0.0608   -0.4267 C   0  0  0  0  0  0  0  0  0  0  0  0
   -2.3689    0.2913   -1.4465 N   0  0  0  0  0  0  0  0  0  0  0  0
   -3.5897   -0.1239   -1.0208 N   0  0  0  0  0  0  0  0  0  0  0  0
   -3.6746   -0.7272    0.2034 C   0  0  0  0  0  3  0  0  0  0  0  0
   -2.3189   -0.6808    0.5931 C   0  0  0  0  0  0  0  0  0  0  0  0
    0.4937    0.8076   -1.4984 C   0  0  0  0  0  0  0  0  0  0  0  0
    2.1994    0.9682   -1.2243 S   0  0  0  0  0  0  0  0  0  0  0  0
    4.1109    0.4951    0.7667 H   0  0  0  0  0  0  0  0  0  0  0  0
    3.4864   -1.0838    1.2620 H   0  0  0  0  0  0  0  0  0  0  0  0
    3.0751    0.3561    2.1972 H   0  0  0  0  0  0  0  0  0  0  0  0
    0.4533   -0.6322    1.4907 H   0  0  0  0  0  0  0  0  0  0  0  0
   -4.3678    0.0422   -1.6454 H   0  0  0  0  0  0  0  0  0  0  0  0
   -1.9096   -1.0577    1.5233 H   0  0  0  0  0  0  0  0  0  0  0  0
    0.0741    1.1747   -2.4124 H   0  0  0  0  0  0  0  0  0  0  0  0
  1 13  1  0  0  0  0
  1 14  1  0  0  0  0
  2  3  2  0  0  0  0
  2  1  1  0  0  0  0
  3 15  1  0  0  0  0
  4  5  1  0  0  0  0
  4  3  1  0  0  0  0
  5  9  1  0  0  0  0
  6  7  1  0  0  0  0
  6  5  2  0  0  0  0
  7  8  1  0  0  0  0
  8  9  2  0  0  0  0
  9 17  1  0  0  0  0
 10 11  1  0  0  0  0
 10  4  2  0  0  0  0
 11  2  1  0  0  0  0
 12  1  1  0  0  0  0
 16  7  1  0  0  0  0
 18 10  1  0  0  0  0
M  END
$$$$
