          19
 
C             3.6648510368            0.4362878805            0.4713655799
C             2.3416788811           -0.1088919517            0.0535686528
C             1.0973561010            0.3654407385            0.2876361121
C             0.0702957935           -0.4530609967           -0.2830915216
C            -1.3219198353           -0.1337081050           -0.1558495207
N            -1.7897665267            0.9378072476            0.4839805480
N            -3.1342100738            0.8738627143            0.3765199458
C            -3.5358966232           -0.2182008569           -0.3213060757
C            -2.4072638857           -0.8935650584           -0.6822009206
C             0.4732221614           -1.5944257475           -0.9831174920
S             2.2326956768           -1.5873853951           -0.8864610252
H             3.5280980278            1.3718998489            1.0160227878
H             4.3014976969            0.6283987646           -0.3962214619
H             4.1944214170           -0.2681754163            1.1187165600
H             0.8877339467            1.2671901861            0.8463699846
H            -3.7049224326            1.5922180948            0.7896644322
H            -4.5792745283           -0.4133150537           -0.4951848665
H            -2.3185968333           -1.8023778940           -1.2404127192
H            -2.9233518245           -0.6996157520           -0.2732983222
          19
 
C             3.6648510368            0.4362878805            0.4713655799
C             2.3416788811           -0.1088919517            0.0535686528
C             1.0973561010            0.3654407385            0.2876361121
C             0.0702957935           -0.4530609967           -0.2830915216
C            -1.3219198353           -0.1337081050           -0.1558495207
N            -1.7897665267            0.9378072476            0.4839805480
N            -3.1342100738            0.8738627143            0.3765199458
C            -3.5358966232           -0.2182008569           -0.3213060757
C            -2.4072638857           -0.8935650584           -0.6822009206
C             0.4732221614           -1.5944257475           -0.9831174920
S             2.2326956768           -1.5873853951           -0.8864610252
H             3.5280980278            1.3718998489            1.0160227878
H             4.3014976969            0.6283987646           -0.3962214619
H             4.1944214170           -0.2681754163            1.1187165600
H             0.8877339467            1.2671901861            0.8463699846
H            -3.7049224326            1.5922180948            0.7896644322
H            -4.5792745283           -0.4133150537           -0.4951848665
H            -2.3185968333           -1.8023778940           -1.2404127192
H            -2.8903293622           -0.4133512408           -0.7292621721
          19
 
C             3.6648510368            0.4362878805            0.4713655799
C             2.3416788811           -0.1088919517            0.0535686528
C             1.0973561010            0.3654407385            0.2876361121
C             0.0702957935           -0.4530609967           -0.2830915216
C            -1.3219198353           -0.1337081050           -0.1558495207
N            -1.7897665267            0.9378072476            0.4839805480
N            -3.1342100738            0.8738627143            0.3765199458
C            -3.5358966232           -0.2182008569           -0.3213060757
C            -2.4072638857           -0.8935650584           -0.6822009206
C             0.4732221614           -1.5944257475           -0.9831174920
S             2.2326956768           -1.5873853951           -0.8864610252
H             3.5280980278            1.3718998489            1.0160227878
H             4.3014976969            0.6283987646           -0.3962214619
H             4.1944214170           -0.2681754163            1.1187165600
H             0.8877339467            1.2671901861            0.8463699846
H            -3.7049224326            1.5922180948            0.7896644322
H            -4.5792745283           -0.4133150537           -0.4951848665
H            -2.3185968333           -1.8023778940           -1.2404127192
H            -1.6278078123            0.3307654025            0.4025128517
          19
 
C             3.6648510368            0.4362878805            0.4713655799
C             2.3416788811           -0.1088919517            0.0535686528
C             1.0973561010            0.3654407385            0.2876361121
C             0.0702957935           -0.4530609967           -0.2830915216
C            -1.3219198353           -0.1337081050           -0.1558495207
N            -1.7897665267            0.9378072476            0.4839805480
N            -3.1342100738            0.8738627143            0.3765199458
C            -3.5358966232           -0.2182008569           -0.3213060757
C            -2.4072638857           -0.8935650584           -0.6822009206
C             0.4732221614           -1.5944257475           -0.9831174920
S             2.2326956768           -1.5873853951           -0.8864610252
H             3.5280980278            1.3718998489            1.0160227878
H             4.3014976969            0.6283987646           -0.3962214619
H             4.1944214170           -0.2681754163            1.1187165600
H             0.8877339467            1.2671901861            0.8463699846
H            -3.7049224326            1.5922180948            0.7896644322
H            -4.5792745283           -0.4133150537           -0.4951848665
H            -2.3185968333           -1.8023778940           -1.2404127192
H            -1.6092361031            0.5855543882           -0.0146220755
          19
 
C             3.6648510368            0.4362878805            0.4713655799
C             2.3416788811           -0.1088919517            0.0535686528
C             1.0973561010            0.3654407385            0.2876361121
C             0.0702957935           -0.4530609967           -0.2830915216
C            -1.3219198353           -0.1337081050           -0.1558495207
N            -1.7897665267            0.9378072476            0.4839805480
N            -3.1342100738            0.8738627143            0.3765199458
C            -3.5358966232           -0.2182008569           -0.3213060757
C            -2.4072638857           -0.8935650584           -0.6822009206
C             0.4732221614           -1.5944257475           -0.9831174920
S             2.2326956768           -1.5873853951           -0.8864610252
H             3.5280980278            1.3718998489            1.0160227878
H             4.3014976969            0.6283987646           -0.3962214619
H             4.1944214170           -0.2681754163            1.1187165600
H             0.8877339467            1.2671901861            0.8463699846
H            -3.7049224326            1.5922180948            0.7896644322
H            -4.5792745283           -0.4133150537           -0.4951848665
H            -2.3185968333           -1.8023778940           -1.2404127192
H            -3.0560601446            0.7433446140            0.1828503136
          19
 
C             3.6648510368            0.4362878805            0.4713655799
C             2.3416788811           -0.1088919517            0.0535686528
C             1.0973561010            0.3654407385            0.2876361121
C             0.0702957935           -0.4530609967           -0.2830915216
C            -1.3219198353           -0.1337081050           -0.1558495207
N            -1.7897665267            0.9378072476            0.4839805480
N            -3.1342100738            0.8738627143            0.3765199458
C            -3.5358966232           -0.2182008569           -0.3213060757
C            -2.4072638857           -0.8935650584           -0.6822009206
C             0.4732221614           -1.5944257475           -0.9831174920
S             2.2326956768           -1.5873853951           -0.8864610252
H             3.5280980278            1.3718998489            1.0160227878
H             4.3014976969            0.6283987646           -0.3962214619
H             4.1944214170           -0.2681754163            1.1187165600
H             0.8877339467            1.2671901861            0.8463699846
H            -3.7049224326            1.5922180948            0.7896644322
H            -4.5792745283           -0.4133150537           -0.4951848665
H            -2.3185968333           -1.8023778940           -1.2404127192
H             2.5963187916           -1.2337594724           -2.1794942285
          19
 
C             3.6648510368            0.4362878805            0.4713655799
C             2.3416788811           -0.1088919517            0.0535686528
C             1.0973561010            0.3654407385            0.2876361121
C             0.0702957935           -0.4530609967           -0.2830915216
C            -1.3219198353           -0.1337081050           -0.1558495207
N            -1.7897665267            0.9378072476            0.4839805480
N            -3.1342100738            0.8738627143            0.3765199458
C            -3.5358966232           -0.2182008569           -0.3213060757
C            -2.4072638857           -0.8935650584           -0.6822009206
C             0.4732221614           -1.5944257475           -0.9831174920
S             2.2326956768           -1.5873853951           -0.8864610252
H             3.5280980278            1.3718998489            1.0160227878
H             4.3014976969            0.6283987646           -0.3962214619
H             4.1944214170           -0.2681754163            1.1187165600
H             0.8877339467            1.2671901861            0.8463699846
H            -3.7049224326            1.5922180948            0.7896644322
H            -4.5792745283           -0.4133150537           -0.4951848665
H            -2.3185968333           -1.8023778940           -1.2404127192
H             2.4823307012           -2.6185928164            0.0094070330
          19
 
C             3.6648510368            0.4362878805            0.4713655799
C             2.3416788811           -0.1088919517            0.0535686528
C             1.0973561010            0.3654407385            0.2876361121
C             0.0702957935           -0.4530609967           -0.2830915216
C            -1.3219198353           -0.1337081050           -0.1558495207
N            -1.7897665267            0.9378072476            0.4839805480
N            -3.1342100738            0.8738627143            0.3765199458
C            -3.5358966232           -0.2182008569           -0.3213060757
C            -2.4072638857           -0.8935650584           -0.6822009206
C             0.4732221614           -1.5944257475           -0.9831174920
S             2.2326956768           -1.5873853951           -0.8864610252
H             3.5280980278            1.3718998489            1.0160227878
H             4.3014976969            0.6283987646           -0.3962214619
H             4.1944214170           -0.2681754163            1.1187165600
H             0.8877339467            1.2671901861            0.8463699846
H            -3.7049224326            1.5922180948            0.7896644322
H            -4.5792745283           -0.4133150537           -0.4951848665
H            -2.3185968333           -1.8023778940           -1.2404127192
H             1.7179885628           -0.0451171533            0.3922956368
          19
 
C             3.6648510368            0.4362878805            0.4713655799
C             2.3416788811           -0.1088919517            0.0535686528
C             1.0973561010            0.3654407385            0.2876361121
C             0.0702957935           -0.4530609967           -0.2830915216
C            -1.3219198353           -0.1337081050           -0.1558495207
N            -1.7897665267            0.9378072476            0.4839805480
N            -3.1342100738            0.8738627143            0.3765199458
C            -3.5358966232           -0.2182008569           -0.3213060757
C            -2.4072638857           -0.8935650584           -0.6822009206
C             0.4732221614           -1.5944257475           -0.9831174920
S             2.2326956768           -1.5873853951           -0.8864610252
H             3.5280980278            1.3718998489            1.0160227878
H             4.3014976969            0.6283987646           -0.3962214619
H             4.1944214170           -0.2681754163            1.1187165600
H             0.8877339467            1.2671901861            0.8463699846
H            -3.7049224326            1.5922180948            0.7896644322
H            -4.5792745283           -0.4133150537           -0.4951848665
H            -2.3185968333           -1.8023778940           -1.2404127192
H             1.7434177584            0.2535745071           -0.0804596746
          19
 
C             3.6648510368            0.4362878805            0.4713655799
C             2.3416788811           -0.1088919517            0.0535686528
C             1.0973561010            0.3654407385            0.2876361121
C             0.0702957935           -0.4530609967           -0.2830915216
C            -1.3219198353           -0.1337081050           -0.1558495207
N            -1.7897665267            0.9378072476            0.4839805480
N            -3.1342100738            0.8738627143            0.3765199458
C            -3.5358966232           -0.2182008569           -0.3213060757
C            -2.4072638857           -0.8935650584           -0.6822009206
C             0.4732221614           -1.5944257475           -0.9831174920
S             2.2326956768           -1.5873853951           -0.8864610252
H             3.5280980278            1.3718998489            1.0160227878
H             4.3014976969            0.6283987646           -0.3962214619
H             4.1944214170           -0.2681754163            1.1187165600
H             0.8877339467            1.2671901861            0.8463699846
H            -3.7049224326            1.5922180948            0.7896644322
H            -4.5792745283           -0.4133150537           -0.4951848665
H            -2.3185968333           -1.8023778940           -1.2404127192
H            -1.3565693482            1.6778783874            0.9638008113
          19
 
C             3.6648510368            0.4362878805            0.4713655799
C             2.3416788811           -0.1088919517            0.0535686528
C             1.0973561010            0.3654407385            0.2876361121
C             0.0702957935           -0.4530609967           -0.2830915216
C            -1.3219198353           -0.1337081050           -0.1558495207
N            -1.7897665267            0.9378072476            0.4839805480
N            -3.1342100738            0.8738627143            0.3765199458
C            -3.5358966232           -0.2182008569           -0.3213060757
C            -2.4072638857           -0.8935650584           -0.6822009206
C             0.4732221614           -1.5944257475           -0.9831174920
S             2.2326956768           -1.5873853951           -0.8864610252
H             3.5280980278            1.3718998489            1.0160227878
H             4.3014976969            0.6283987646           -0.3962214619
H             4.1944214170           -0.2681754163            1.1187165600
H             0.8877339467            1.2671901861            0.8463699846
H            -3.7049224326            1.5922180948            0.7896644322
H            -4.5792745283           -0.4133150537           -0.4951848665
H            -2.3185968333           -1.8023778940           -1.2404127192
H             0.2156792300           -0.9632128892           -0.3075894846
          19
 
C             3.6648510368            0.4362878805            0.4713655799
C             2.3416788811           -0.1088919517            0.0535686528
C             1.0973561010            0.3654407385            0.2876361121
C             0.0702957935           -0.4530609967           -0.2830915216
C            -1.3219198353           -0.1337081050           -0.1558495207
N            -1.7897665267            0.9378072476            0.4839805480
N            -3.1342100738            0.8738627143            0.3765199458
C            -3.5358966232           -0.2182008569           -0.3213060757
C            -2.4072638857           -0.8935650584           -0.6822009206
C             0.4732221614           -1.5944257475           -0.9831174920
S             2.2326956768           -1.5873853951           -0.8864610252
H             3.5280980278            1.3718998489            1.0160227878
H             4.3014976969            0.6283987646           -0.3962214619
H             4.1944214170           -0.2681754163            1.1187165600
H             0.8877339467            1.2671901861            0.8463699846
H            -3.7049224326            1.5922180948            0.7896644322
H            -4.5792745283           -0.4133150537           -0.4951848665
H            -2.3185968333           -1.8023778940           -1.2404127192
H             0.2357372367           -0.6971184695           -0.7193092941
          19
 
C             3.6648510368            0.4362878805            0.4713655799
C             2.3416788811           -0.1088919517            0.0535686528
C             1.0973561010            0.3654407385            0.2876361121
C             0.0702957935           -0.4530609967           -0.2830915216
C            -1.3219198353           -0.1337081050           -0.1558495207
N            -1.7897665267            0.9378072476            0.4839805480
N            -3.1342100738            0.8738627143            0.3765199458
C            -3.5358966232           -0.2182008569           -0.3213060757
C            -2.4072638857           -0.8935650584           -0.6822009206
C             0.4732221614           -1.5944257475           -0.9831174920
S             2.2326956768           -1.5873853951           -0.8864610252
H             3.5280980278            1.3718998489            1.0160227878
H             4.3014976969            0.6283987646           -0.3962214619
H             4.1944214170           -0.2681754163            1.1187165600
H             0.8877339467            1.2671901861            0.8463699846
H            -3.7049224326            1.5922180948            0.7896644322
H            -4.5792745283           -0.4133150537           -0.4951848665
H            -2.3185968333           -1.8023778940           -1.2404127192
H            -3.2718715323            0.5019002335           -0.1763190095
          19
 
C             3.6648510368            0.4362878805            0.4713655799
C             2.3416788811           -0.1088919517            0.0535686528
C             1.0973561010            0.3654407385            0.2876361121
C             0.0702957935           -0.4530609967           -0.2830915216
C            -1.3219198353           -0.1337081050           -0.1558495207
N            -1.7897665267            0.9378072476            0.4839805480
N            -3.1342100738            0.8738627143            0.3765199458
C            -3.5358966232           -0.2182008569           -0.3213060757
C            -2.4072638857           -0.8935650584           -0.6822009206
C             0.4732221614           -1.5944257475           -0.9831174920
S             2.2326956768           -1.5873853951           -0.8864610252
H             3.5280980278            1.3718998489            1.0160227878
H             4.3014976969            0.6283987646           -0.3962214619
H             4.1944214170           -0.2681754163            1.1187165600
H             0.8877339467            1.2671901861            0.8463699846
H            -3.7049224326            1.5922180948            0.7896644322
H            -4.5792745283           -0.4133150537           -0.4951848665
H            -2.3185968333           -1.8023778940           -1.2404127192
H            -3.2860428516            0.2207688320            0.2837953344
          19
 
C             3.6648510368            0.4362878805            0.4713655799
C             2.3416788811           -0.1088919517            0.0535686528
C             1.0973561010            0.3654407385            0.2876361121
C             0.0702957935           -0.4530609967           -0.2830915216
C            -1.3219198353           -0.1337081050           -0.1558495207
N            -1.7897665267            0.9378072476            0.4839805480
N            -3.1342100738            0.8738627143            0.3765199458
C            -3.5358966232           -0.2182008569           -0.3213060757
C            -2.4072638857           -0.8935650584           -0.6822009206
C             0.4732221614           -1.5944257475           -0.9831174920
S             2.2326956768           -1.5873853951           -0.8864610252
H             3.5280980278            1.3718998489            1.0160227878
H             4.3014976969            0.6283987646           -0.3962214619
H             4.1944214170           -0.2681754163            1.1187165600
H             0.8877339467            1.2671901861            0.8463699846
H            -3.7049224326            1.5922180948            0.7896644322
H            -4.5792745283           -0.4133150537           -0.4951848665
H            -2.3185968333           -1.8023778940           -1.2404127192
H            -1.9113391347           -0.4190083108           -0.6778365593
          19
 
C             3.6648510368            0.4362878805            0.4713655799
C             2.3416788811           -0.1088919517            0.0535686528
C             1.0973561010            0.3654407385            0.2876361121
C             0.0702957935           -0.4530609967           -0.2830915216
C            -1.3219198353           -0.1337081050           -0.1558495207
N            -1.7897665267            0.9378072476            0.4839805480
N            -3.1342100738            0.8738627143            0.3765199458
C            -3.5358966232           -0.2182008569           -0.3213060757
C            -2.4072638857           -0.8935650584           -0.6822009206
C             0.4732221614           -1.5944257475           -0.9831174920
S             2.2326956768           -1.5873853951           -0.8864610252
H             3.5280980278            1.3718998489            1.0160227878
H             4.3014976969            0.6283987646           -0.3962214619
H             4.1944214170           -0.2681754163            1.1187165600
H             0.8877339467            1.2671901861            0.8463699846
H            -3.7049224326            1.5922180948            0.7896644322
H            -4.5792745283           -0.4133150537           -0.4951848665
H            -2.3185968333           -1.8023778940           -1.2404127192
H            -1.9445097747           -0.7003648825           -0.2188386412
          19
 
C             3.6648510368            0.4362878805            0.4713655799
C             2.3416788811           -0.1088919517            0.0535686528
C             1.0973561010            0.3654407385            0.2876361121
C             0.0702957935           -0.4530609967           -0.2830915216
C            -1.3219198353           -0.1337081050           -0.1558495207
N            -1.7897665267            0.9378072476            0.4839805480
N            -3.1342100738            0.8738627143            0.3765199458
C            -3.5358966232           -0.2182008569           -0.3213060757
C            -2.4072638857           -0.8935650584           -0.6822009206
C             0.4732221614           -1.5944257475           -0.9831174920
S             2.2326956768           -1.5873853951           -0.8864610252
H             3.5280980278            1.3718998489            1.0160227878
H             4.3014976969            0.6283987646           -0.3962214619
H             4.1944214170           -0.2681754163            1.1187165600
H             0.8877339467            1.2671901861            0.8463699846
H            -3.7049224326            1.5922180948            0.7896644322
H            -4.5792745283           -0.4133150537           -0.4951848665
H            -2.3185968333           -1.8023778940           -1.2404127192
H            -2.3592945020            1.0169228193            0.2179992810
          19
 
C             3.6648510368            0.4362878805            0.4713655799
C             2.3416788811           -0.1088919517            0.0535686528
C             1.0973561010            0.3654407385            0.2876361121
C             0.0702957935           -0.4530609967           -0.2830915216
C            -1.3219198353           -0.1337081050           -0.1558495207
N            -1.7897665267            0.9378072476            0.4839805480
N            -3.1342100738            0.8738627143            0.3765199458
C            -3.5358966232           -0.2182008569           -0.3213060757
C            -2.4072638857           -0.8935650584           -0.6822009206
C             0.4732221614           -1.5944257475           -0.9831174920
S             2.2326956768           -1.5873853951           -0.8864610252
H             3.5280980278            1.3718998489            1.0160227878
H             4.3014976969            0.6283987646           -0.3962214619
H             4.1944214170           -0.2681754163            1.1187165600
H             0.8877339467            1.2671901861            0.8463699846
H            -3.7049224326            1.5922180948            0.7896644322
H            -4.5792745283           -0.4133150537           -0.4951848665
H            -2.3185968333           -1.8023778940           -1.2404127192
H            -2.3819798715            0.7568053910            0.6316273412
