energy: -30.275924429552 gnorm: 0.000348352977 xtb: 6.4.1 (afa7bdf)
 OpenBabel11022218133D

 19 20  0  0  0  0  0  0  0  0999 V2000
   -1.9471   -0.7883   -0.8029 C   0  0  0  0  0  0  0  0  0  0  0  0
   -1.3769   -0.0572    0.2653 C   0  0  0  0  0  0  0  0  0  0  0  0
    0.0143    0.2842    0.4658 C   0  0  0  0  0  0  0  0  0  0  0  0
    1.0691   -0.0760   -0.4193 C   0  0  0  0  0  0  0  0  0  0  0  0
    2.2885    0.3596   -0.0143 C   0  0  0  0  0  0  0  0  0  0  0  0
    2.1693    1.2331    1.4827 S   0  0  0  0  0  0  0  0  0  0  0  0
    0.4721    0.9962    1.5369 C   0  0  0  0  0  0  0  0  0  0  0  0
    3.6080    0.1637   -0.6765 C   0  0  0  0  0  0  0  0  0  0  0  0
   -2.3218    0.3068    1.1252 N   0  0  0  0  0  0  0  0  0  0  0  0
   -3.4620   -0.1677    0.6374 N   0  0  0  0  0  0  0  0  0  0  0  0
   -3.2884   -0.8350   -0.5228 C   0  0  0  0  0  0  0  0  0  0  0  0
   -1.4440   -1.2132   -1.6461 H   0  0  0  0  0  0  0  0  0  0  0  0
    0.9198   -0.6381   -1.3238 H   0  0  0  0  0  0  0  0  0  0  0  0
   -0.1049    1.3891    2.3485 H   0  0  0  0  0  0  0  0  0  0  0  0
    4.3785    0.7347   -0.1649 H   0  0  0  0  0  0  0  0  0  0  0  0
    3.8907   -0.8895   -0.6616 H   0  0  0  0  0  0  0  0  0  0  0  0
    3.5645    0.4855   -1.7166 H   0  0  0  0  0  0  0  0  0  0  0  0
   -4.3223   -0.0064    1.1364 H   0  0  0  0  0  0  0  0  0  0  0  0
   -4.1073   -1.2816   -1.0495 H   0  0  0  0  0  0  0  0  0  0  0  0
  1 11  2  0  0  0  0
  1  2  1  0  0  0  0
  2  3  1  0  0  0  0
  2  9  2  0  0  0  0
  3  7  2  0  0  0  0
  4  5  2  0  0  0  0
  4  3  1  0  0  0  0
  5  6  1  0  0  0  0
  6  7  1  0  0  0  0
  7 14  1  0  0  0  0
  8 16  1  0  0  0  0
  8 15  1  0  0  0  0
  8  5  1  0  0  0  0
 10  9  1  0  0  0  0
 10 18  1  0  0  0  0
 11 10  1  0  0  0  0
 12  1  1  0  0  0  0
 13  4  1  0  0  0  0
 17  8  1  0  0  0  0
 19 11  1  0  0  0  0
M  END
$$$$
