energy: -29.902580834231 gnorm: 0.000352335664 xtb: 6.4.1 (afa7bdf)
 OpenBabel11022218133D

 18 19  0  0  0  0  0  0  0  0999 V2000
    3.6146   -0.3490    0.0430 C   0  0  0  0  0  0  0  0  0  0  0  0
    2.2837    0.2878    0.2582 C   0  0  0  0  0  0  0  0  0  0  0  0
    1.0472   -0.1884   -0.0162 C   0  0  0  0  0  0  0  0  0  0  0  0
   -0.0014    0.7230    0.3392 C   0  0  0  0  0  0  0  0  0  0  0  0
   -1.3835    0.3864    0.1297 C   0  0  0  0  0  0  0  0  0  0  0  0
   -2.3944    1.2276    0.3347 N   0  0  0  0  0  0  0  0  0  0  0  0
   -3.5166    0.5456    0.0390 N   0  0  0  0  0  0  0  0  0  0  0  0
   -3.2538   -0.7227   -0.3557 C   0  0  0  0  0  0  0  0  0  0  0  0
   -1.8967   -0.8704   -0.3146 C   0  0  0  0  0  0  0  0  0  0  0  0
    0.3833    1.9411    0.9074 C   0  0  0  0  0  3  0  0  0  0  0  0
    2.1438    1.8812    0.9730 S   0  0  0  0  0  0  0  0  0  0  0  0
    4.2704    0.3023   -0.5401 H   0  0  0  0  0  0  0  0  0  0  0  0
    3.4975   -1.2938   -0.4916 H   0  0  0  0  0  0  0  0  0  0  0  0
    4.1132   -0.5510    0.9956 H   0  0  0  0  0  0  0  0  0  0  0  0
    0.8873   -1.1592   -0.4711 H   0  0  0  0  0  0  0  0  0  0  0  0
   -4.4118    0.9963    0.1289 H   0  0  0  0  0  0  0  0  0  0  0  0
   -4.0419   -1.4025   -0.6276 H   0  0  0  0  0  0  0  0  0  0  0  0
   -1.3409   -1.7543   -0.5603 H   0  0  0  0  0  0  0  0  0  0  0  0
  1  2  1  0  0  0  0
  1 14  1  0  0  0  0
  2 11  1  0  0  0  0
  3  2  2  0  0  0  0
  3  4  1  0  0  0  0
  4 10  2  0  0  0  0
  5  6  2  0  0  0  0
  5  4  1  0  0  0  0
  7 16  1  0  0  0  0
  7  6  1  0  0  0  0
  8  9  2  0  0  0  0
  8  7  1  0  0  0  0
  9  5  1  0  0  0  0
 10 11  1  0  0  0  0
 12  1  1  0  0  0  0
 13  1  1  0  0  0  0
 15  3  1  0  0  0  0
 17  8  1  0  0  0  0
 18  9  1  0  0  0  0
M  END
$$$$
