          19
 
C            -3.6308333009           -0.0554436348            0.0157290137
C            -2.2500547763            0.3908473771            0.3581144618
C            -1.0592217584           -0.0893731839           -0.0684641256
C             0.0637841256            0.6104463306            0.4842232880
C             1.4115296985            0.2374985622            0.1504480873
N             2.4912934674            0.8988006877            0.5610065775
N             3.5502027994            0.2438659776            0.0495057100
C             3.1789038426           -0.8301018628           -0.6869463263
C             1.8143191313           -0.8741073475           -0.6513799631
C            -0.2150485700            1.6605433516            1.3644078645
S            -1.9734861636            1.7234990660            1.4614799179
H            -4.2012936515            0.7538627930           -0.4484448751
H            -3.5924717521           -0.8956064455           -0.6806180029
H            -4.1748682165           -0.3708877578            0.9103495952
H            -0.9836455568           -0.9163540572           -0.7651161211
H             4.4810310220            0.5764679802            0.2381050269
H             3.9050912069           -1.4628368474           -1.1658900921
H             1.1847674523           -1.6011199891           -1.1265100364
H             2.4566592884           -0.9800710890           -0.4300297274
          19
 
C            -3.6308333009           -0.0554436348            0.0157290137
C            -2.2500547763            0.3908473771            0.3581144618
C            -1.0592217584           -0.0893731839           -0.0684641256
C             0.0637841256            0.6104463306            0.4842232880
C             1.4115296985            0.2374985622            0.1504480873
N             2.4912934674            0.8988006877            0.5610065775
N             3.5502027994            0.2438659776            0.0495057100
C             3.1789038426           -0.8301018628           -0.6869463263
C             1.8143191313           -0.8741073475           -0.6513799631
C            -0.2150485700            1.6605433516            1.3644078645
S            -1.9734861636            1.7234990660            1.4614799179
H            -4.2012936515            0.7538627930           -0.4484448751
H            -3.5924717521           -0.8956064455           -0.6806180029
H            -4.1748682165           -0.3708877578            0.9103495952
H            -0.9836455568           -0.9163540572           -0.7651161211
H             4.4810310220            0.5764679802            0.2381050269
H             3.9050912069           -1.4628368474           -1.1658900921
H             1.1847674523           -1.6011199891           -1.1265100364
H             2.4289754653           -0.6650412988           -0.8666075720
          19
 
C            -3.6308333009           -0.0554436348            0.0157290137
C            -2.2500547763            0.3908473771            0.3581144618
C            -1.0592217584           -0.0893731839           -0.0684641256
C             0.0637841256            0.6104463306            0.4842232880
C             1.4115296985            0.2374985622            0.1504480873
N             2.4912934674            0.8988006877            0.5610065775
N             3.5502027994            0.2438659776            0.0495057100
C             3.1789038426           -0.8301018628           -0.6869463263
C             1.8143191313           -0.8741073475           -0.6513799631
C            -0.2150485700            1.6605433516            1.3644078645
S            -1.9734861636            1.7234990660            1.4614799179
H            -4.2012936515            0.7538627930           -0.4484448751
H            -3.5924717521           -0.8956064455           -0.6806180029
H            -4.1748682165           -0.3708877578            0.9103495952
H            -0.9836455568           -0.9163540572           -0.7651161211
H             4.4810310220            0.5764679802            0.2381050269
H             3.9050912069           -1.4628368474           -1.1658900921
H             1.1847674523           -1.6011199891           -1.1265100364
H             3.3659779234            0.1852729247           -0.1025956480
          19
 
C            -3.6308333009           -0.0554436348            0.0157290137
C            -2.2500547763            0.3908473771            0.3581144618
C            -1.0592217584           -0.0893731839           -0.0684641256
C             0.0637841256            0.6104463306            0.4842232880
C             1.4115296985            0.2374985622            0.1504480873
N             2.4912934674            0.8988006877            0.5610065775
N             3.5502027994            0.2438659776            0.0495057100
C             3.1789038426           -0.8301018628           -0.6869463263
C             1.8143191313           -0.8741073475           -0.6513799631
C            -0.2150485700            1.6605433516            1.3644078645
S            -1.9734861636            1.7234990660            1.4614799179
H            -4.2012936515            0.7538627930           -0.4484448751
H            -3.5924717521           -0.8956064455           -0.6806180029
H            -4.1748682165           -0.3708877578            0.9103495952
H            -0.9836455568           -0.9163540572           -0.7651161211
H             4.4810310220            0.5764679802            0.2381050269
H             3.9050912069           -1.4628368474           -1.1658900921
H             1.1847674523           -1.6011199891           -1.1265100364
H             2.0471317257            0.4411035545            0.5598363074
          19
 
C            -3.6308333009           -0.0554436348            0.0157290137
C            -2.2500547763            0.3908473771            0.3581144618
C            -1.0592217584           -0.0893731839           -0.0684641256
C             0.0637841256            0.6104463306            0.4842232880
C             1.4115296985            0.2374985622            0.1504480873
N             2.4912934674            0.8988006877            0.5610065775
N             3.5502027994            0.2438659776            0.0495057100
C             3.1789038426           -0.8301018628           -0.6869463263
C             1.8143191313           -0.8741073475           -0.6513799631
C            -0.2150485700            1.6605433516            1.3644078645
S            -1.9734861636            1.7234990660            1.4614799179
H            -4.2012936515            0.7538627930           -0.4484448751
H            -3.5924717521           -0.8956064455           -0.6806180029
H            -4.1748682165           -0.3708877578            0.9103495952
H            -0.9836455568           -0.9163540572           -0.7651161211
H             4.4810310220            0.5764679802            0.2381050269
H             3.9050912069           -1.4628368474           -1.1658900921
H             1.1847674523           -1.6011199891           -1.1265100364
H             2.0268283942            0.7199472124            0.1583065919
          19
 
C            -3.6308333009           -0.0554436348            0.0157290137
C            -2.2500547763            0.3908473771            0.3581144618
C            -1.0592217584           -0.0893731839           -0.0684641256
C             0.0637841256            0.6104463306            0.4842232880
C             1.4115296985            0.2374985622            0.1504480873
N             2.4912934674            0.8988006877            0.5610065775
N             3.5502027994            0.2438659776            0.0495057100
C             3.1789038426           -0.8301018628           -0.6869463263
C             1.8143191313           -0.8741073475           -0.6513799631
C            -0.2150485700            1.6605433516            1.3644078645
S            -1.9734861636            1.7234990660            1.4614799179
H            -4.2012936515            0.7538627930           -0.4484448751
H            -3.5924717521           -0.8956064455           -0.6806180029
H            -4.1748682165           -0.3708877578            0.9103495952
H            -0.9836455568           -0.9163540572           -0.7651161211
H             4.4810310220            0.5764679802            0.2381050269
H             3.9050912069           -1.4628368474           -1.1658900921
H             1.1847674523           -1.6011199891           -1.1265100364
H            -2.2251149352            1.2050982190            2.7215220404
          19
 
C            -3.6308333009           -0.0554436348            0.0157290137
C            -2.2500547763            0.3908473771            0.3581144618
C            -1.0592217584           -0.0893731839           -0.0684641256
C             0.0637841256            0.6104463306            0.4842232880
C             1.4115296985            0.2374985622            0.1504480873
N             2.4912934674            0.8988006877            0.5610065775
N             3.5502027994            0.2438659776            0.0495057100
C             3.1789038426           -0.8301018628           -0.6869463263
C             1.8143191313           -0.8741073475           -0.6513799631
C            -0.2150485700            1.6605433516            1.3644078645
S            -1.9734861636            1.7234990660            1.4614799179
H            -4.2012936515            0.7538627930           -0.4484448751
H            -3.5924717521           -0.8956064455           -0.6806180029
H            -4.1748682165           -0.3708877578            0.9103495952
H            -0.9836455568           -0.9163540572           -0.7651161211
H             4.4810310220            0.5764679802            0.2381050269
H             3.9050912069           -1.4628368474           -1.1658900921
H             1.1847674523           -1.6011199891           -1.1265100364
H            -2.2741747376            2.8619238166            0.7333062999
          19
 
C            -3.6308333009           -0.0554436348            0.0157290137
C            -2.2500547763            0.3908473771            0.3581144618
C            -1.0592217584           -0.0893731839           -0.0684641256
C             0.0637841256            0.6104463306            0.4842232880
C             1.4115296985            0.2374985622            0.1504480873
N             2.4912934674            0.8988006877            0.5610065775
N             3.5502027994            0.2438659776            0.0495057100
C             3.1789038426           -0.8301018628           -0.6869463263
C             1.8143191313           -0.8741073475           -0.6513799631
C            -0.2150485700            1.6605433516            1.3644078645
S            -1.9734861636            1.7234990660            1.4614799179
H            -4.2012936515            0.7538627930           -0.4484448751
H            -3.5924717521           -0.8956064455           -0.6806180029
H            -4.1748682165           -0.3708877578            0.9103495952
H            -0.9836455568           -0.9163540572           -0.7651161211
H             4.4810310220            0.5764679802            0.2381050269
H             3.9050912069           -1.4628368474           -1.1658900921
H             1.1847674523           -1.6011199891           -1.1265100364
H            -1.6656854551            0.3511400182           -0.0521051695
          19
 
C            -3.6308333009           -0.0554436348            0.0157290137
C            -2.2500547763            0.3908473771            0.3581144618
C            -1.0592217584           -0.0893731839           -0.0684641256
C             0.0637841256            0.6104463306            0.4842232880
C             1.4115296985            0.2374985622            0.1504480873
N             2.4912934674            0.8988006877            0.5610065775
N             3.5502027994            0.2438659776            0.0495057100
C             3.1789038426           -0.8301018628           -0.6869463263
C             1.8143191313           -0.8741073475           -0.6513799631
C            -0.2150485700            1.6605433516            1.3644078645
S            -1.9734861636            1.7234990660            1.4614799179
H            -4.2012936515            0.7538627930           -0.4484448751
H            -3.5924717521           -0.8956064455           -0.6806180029
H            -4.1748682165           -0.3708877578            0.9103495952
H            -0.9836455568           -0.9163540572           -0.7651161211
H             4.4810310220            0.5764679802            0.2381050269
H             3.9050912069           -1.4628368474           -1.1658900921
H             1.1847674523           -1.6011199891           -1.1265100364
H            -1.6566796004           -0.0073403466            0.3774126957
          19
 
C            -3.6308333009           -0.0554436348            0.0157290137
C            -2.2500547763            0.3908473771            0.3581144618
C            -1.0592217584           -0.0893731839           -0.0684641256
C             0.0637841256            0.6104463306            0.4842232880
C             1.4115296985            0.2374985622            0.1504480873
N             2.4912934674            0.8988006877            0.5610065775
N             3.5502027994            0.2438659776            0.0495057100
C             3.1789038426           -0.8301018628           -0.6869463263
C             1.8143191313           -0.8741073475           -0.6513799631
C            -0.2150485700            1.6605433516            1.3644078645
S            -1.9734861636            1.7234990660            1.4614799179
H            -4.2012936515            0.7538627930           -0.4484448751
H            -3.5924717521           -0.8956064455           -0.6806180029
H            -4.1748682165           -0.3708877578            0.9103495952
H            -0.9836455568           -0.9163540572           -0.7651161211
H             4.4810310220            0.5764679802            0.2381050269
H             3.9050912069           -1.4628368474           -1.1658900921
H             1.1847674523           -1.6011199891           -1.1265100364
H             2.6198161059            1.6978633128            1.1129944715
          19
 
C            -3.6308333009           -0.0554436348            0.0157290137
C            -2.2500547763            0.3908473771            0.3581144618
C            -1.0592217584           -0.0893731839           -0.0684641256
C             0.0637841256            0.6104463306            0.4842232880
C             1.4115296985            0.2374985622            0.1504480873
N             2.4912934674            0.8988006877            0.5610065775
N             3.5502027994            0.2438659776            0.0495057100
C             3.1789038426           -0.8301018628           -0.6869463263
C             1.8143191313           -0.8741073475           -0.6513799631
C            -0.2150485700            1.6605433516            1.3644078645
S            -1.9734861636            1.7234990660            1.4614799179
H            -4.2012936515            0.7538627930           -0.4484448751
H            -3.5924717521           -0.8956064455           -0.6806180029
H            -4.1748682165           -0.3708877578            0.9103495952
H            -0.9836455568           -0.9163540572           -0.7651161211
H             4.4810310220            0.5764679802            0.2381050269
H             3.9050912069           -1.4628368474           -1.1658900921
H             1.1847674523           -1.6011199891           -1.1265100364
H            -0.0613295688            1.1316417520            0.5989247316
          19
 
C            -3.6308333009           -0.0554436348            0.0157290137
C            -2.2500547763            0.3908473771            0.3581144618
C            -1.0592217584           -0.0893731839           -0.0684641256
C             0.0637841256            0.6104463306            0.4842232880
C             1.4115296985            0.2374985622            0.1504480873
N             2.4912934674            0.8988006877            0.5610065775
N             3.5502027994            0.2438659776            0.0495057100
C             3.1789038426           -0.8301018628           -0.6869463263
C             1.8143191313           -0.8741073475           -0.6513799631
C            -0.2150485700            1.6605433516            1.3644078645
S            -1.9734861636            1.7234990660            1.4614799179
H            -4.2012936515            0.7538627930           -0.4484448751
H            -3.5924717521           -0.8956064455           -0.6806180029
H            -4.1748682165           -0.3708877578            0.9103495952
H            -0.9836455568           -0.9163540572           -0.7651161211
H             4.4810310220            0.5764679802            0.2381050269
H             3.9050912069           -1.4628368474           -1.1658900921
H             1.1847674523           -1.6011199891           -1.1265100364
H            -0.0410230601            0.8063075590            0.9686412593
          19
 
C            -3.6308333009           -0.0554436348            0.0157290137
C            -2.2500547763            0.3908473771            0.3581144618
C            -1.0592217584           -0.0893731839           -0.0684641256
C             0.0637841256            0.6104463306            0.4842232880
C             1.4115296985            0.2374985622            0.1504480873
N             2.4912934674            0.8988006877            0.5610065775
N             3.5502027994            0.2438659776            0.0495057100
C             3.1789038426           -0.8301018628           -0.6869463263
C             1.8143191313           -0.8741073475           -0.6513799631
C            -0.2150485700            1.6605433516            1.3644078645
S            -1.9734861636            1.7234990660            1.4614799179
H            -4.2012936515            0.7538627930           -0.4484448751
H            -3.5924717521           -0.8956064455           -0.6806180029
H            -4.1748682165           -0.3708877578            0.9103495952
H            -0.9836455568           -0.9163540572           -0.7651161211
H             4.4810310220            0.5764679802            0.2381050269
H             3.9050912069           -1.4628368474           -1.1658900921
H             1.1847674523           -1.6011199891           -1.1265100364
H             3.3290437237           -0.0869031763           -0.4992019658
          19
 
C            -3.6308333009           -0.0554436348            0.0157290137
C            -2.2500547763            0.3908473771            0.3581144618
C            -1.0592217584           -0.0893731839           -0.0684641256
C             0.0637841256            0.6104463306            0.4842232880
C             1.4115296985            0.2374985622            0.1504480873
N             2.4912934674            0.8988006877            0.5610065775
N             3.5502027994            0.2438659776            0.0495057100
C             3.1789038426           -0.8301018628           -0.6869463263
C             1.8143191313           -0.8741073475           -0.6513799631
C            -0.2150485700            1.6605433516            1.3644078645
S            -1.9734861636            1.7234990660            1.4614799179
H            -4.2012936515            0.7538627930           -0.4484448751
H            -3.5924717521           -0.8956064455           -0.6806180029
H            -4.1748682165           -0.3708877578            0.9103495952
H            -0.9836455568           -0.9163540572           -0.7651161211
H             4.4810310220            0.5764679802            0.2381050269
H             3.9050912069           -1.4628368474           -1.1658900921
H             1.1847674523           -1.6011199891           -1.1265100364
H             3.3455145727           -0.3903060120           -0.0539090042
          19
 
C            -3.6308333009           -0.0554436348            0.0157290137
C            -2.2500547763            0.3908473771            0.3581144618
C            -1.0592217584           -0.0893731839           -0.0684641256
C             0.0637841256            0.6104463306            0.4842232880
C             1.4115296985            0.2374985622            0.1504480873
N             2.4912934674            0.8988006877            0.5610065775
N             3.5502027994            0.2438659776            0.0495057100
C             3.1789038426           -0.8301018628           -0.6869463263
C             1.8143191313           -0.8741073475           -0.6513799631
C            -0.2150485700            1.6605433516            1.3644078645
S            -1.9734861636            1.7234990660            1.4614799179
H            -4.2012936515            0.7538627930           -0.4484448751
H            -3.5924717521           -0.8956064455           -0.6806180029
H            -4.1748682165           -0.3708877578            0.9103495952
H            -0.9836455568           -0.9163540572           -0.7651161211
H             4.4810310220            0.5764679802            0.2381050269
H             3.9050912069           -1.4628368474           -1.1658900921
H             1.1847674523           -1.6011199891           -1.1265100364
H             1.6211603214           -0.2284455814           -0.5148677614
          19
 
C            -3.6308333009           -0.0554436348            0.0157290137
C            -2.2500547763            0.3908473771            0.3581144618
C            -1.0592217584           -0.0893731839           -0.0684641256
C             0.0637841256            0.6104463306            0.4842232880
C             1.4115296985            0.2374985622            0.1504480873
N             2.4912934674            0.8988006877            0.5610065775
N             3.5502027994            0.2438659776            0.0495057100
C             3.1789038426           -0.8301018628           -0.6869463263
C             1.8143191313           -0.8741073475           -0.6513799631
C            -0.2150485700            1.6605433516            1.3644078645
S            -1.9734861636            1.7234990660            1.4614799179
H            -4.2012936515            0.7538627930           -0.4484448751
H            -3.5924717521           -0.8956064455           -0.6806180029
H            -4.1748682165           -0.3708877578            0.9103495952
H            -0.9836455568           -0.9163540572           -0.7651161211
H             4.4810310220            0.5764679802            0.2381050269
H             3.9050912069           -1.4628368474           -1.1658900921
H             1.1847674523           -1.6011199891           -1.1265100364
H             1.6507983373           -0.5411273375           -0.0767329664
          19
 
C            -3.6308333009           -0.0554436348            0.0157290137
C            -2.2500547763            0.3908473771            0.3581144618
C            -1.0592217584           -0.0893731839           -0.0684641256
C             0.0637841256            0.6104463306            0.4842232880
C             1.4115296985            0.2374985622            0.1504480873
N             2.4912934674            0.8988006877            0.5610065775
N             3.5502027994            0.2438659776            0.0495057100
C             3.1789038426           -0.8301018628           -0.6869463263
C             1.8143191313           -0.8741073475           -0.6513799631
C            -0.2150485700            1.6605433516            1.3644078645
S            -1.9734861636            1.7234990660            1.4614799179
H            -4.2012936515            0.7538627930           -0.4484448751
H            -3.5924717521           -0.8956064455           -0.6806180029
H            -4.1748682165           -0.3708877578            0.9103495952
H            -0.9836455568           -0.9163540572           -0.7651161211
H             4.4810310220            0.5764679802            0.2381050269
H             3.9050912069           -1.4628368474           -1.1658900921
H             1.1847674523           -1.6011199891           -1.1265100364
H             3.3286664625            0.1835760878            0.1377866790
          19
 
C            -3.6308333009           -0.0554436348            0.0157290137
C            -2.2500547763            0.3908473771            0.3581144618
C            -1.0592217584           -0.0893731839           -0.0684641256
C             0.0637841256            0.6104463306            0.4842232880
C             1.4115296985            0.2374985622            0.1504480873
N             2.4912934674            0.8988006877            0.5610065775
N             3.5502027994            0.2438659776            0.0495057100
C             3.1789038426           -0.8301018628           -0.6869463263
C             1.8143191313           -0.8741073475           -0.6513799631
C            -0.2150485700            1.6605433516            1.3644078645
S            -1.9734861636            1.7234990660            1.4614799179
H            -4.2012936515            0.7538627930           -0.4484448751
H            -3.5924717521           -0.8956064455           -0.6806180029
H            -4.1748682165           -0.3708877578            0.9103495952
H            -0.9836455568           -0.9163540572           -0.7651161211
H             4.4810310220            0.5764679802            0.2381050269
H             3.9050912069           -1.4628368474           -1.1658900921
H             1.1847674523           -1.6011199891           -1.1265100364
H             3.1035595251            0.6054174926            0.2310038600
