energy: -4.681126352011 gnorm: 0.000561379973 xtb: 6.4.1 (afa7bdf)
 OpenBabel11022218133D

 18 19  0  0  0  0  0  0  0  0999 V2000
    3.7383   -0.8055    0.1374 C   0  0  0  0  0  0  0  0  0  0  0  0
    2.4565   -0.0627    0.1926 C   0  0  0  0  0  0  0  0  0  0  0  0
    1.2348   -0.5463    0.0234 C   0  0  0  0  0  3  0  0  0  0  0  0
    0.1256    0.3175    0.1060 C   0  0  0  0  0  0  0  0  0  0  0  0
   -1.2946   -0.0814   -0.0567 C   0  0  0  0  0  0  0  0  0  0  0  0
   -1.7157   -1.3222   -0.3080 N   0  0  0  0  0  0  0  0  0  0  0  0
   -3.0413   -1.2385   -0.3756 N   0  0  0  0  0  0  0  0  0  0  0  0
   -3.5172    0.0422   -0.1731 C   0  0  0  0  0  0  0  0  0  0  0  0
   -2.4057    0.8030    0.0343 C   0  0  0  0  0  0  0  0  0  0  0  0
    0.5471    1.5969    0.3639 C   0  0  0  0  0  0  0  0  0  0  0  0
    2.2915    1.6910    0.4960 S   0  0  0  0  0  0  0  0  0  0  0  0
    3.6485   -1.7825    0.6218 H   0  0  0  0  0  0  0  0  0  0  0  0
    4.0515   -0.9691   -0.8984 H   0  0  0  0  0  0  0  0  0  0  0  0
    4.5339   -0.2517    0.6459 H   0  0  0  0  0  0  0  0  0  0  0  0
   -3.6276   -2.0640   -0.5616 H   0  0  0  0  0  0  0  0  0  0  0  0
   -4.5496    0.3617   -0.1795 H   0  0  0  0  0  0  0  0  0  0  0  0
   -2.3739    1.8653    0.2289 H   0  0  0  0  0  0  0  0  0  0  0  0
   -0.1019    2.4461    0.4742 H   0  0  0  0  0  0  0  0  0  0  0  0
  1  2  1  0  0  0  0
  1 12  1  0  0  0  0
  1 14  1  0  0  0  0
  2 11  1  0  0  0  0
  3  4  1  0  0  0  0
  3  2  2  0  0  0  0
  4 10  2  0  0  0  0
  5  9  1  0  0  0  0
  5  4  1  0  0  0  0
  6  5  2  0  0  0  0
  7  6  1  0  0  0  0
  7  8  1  0  0  0  0
  8  9  2  0  0  0  0
  9 17  1  0  0  0  0
 10 18  1  0  0  0  0
 10 11  1  0  0  0  0
 13  1  1  0  0  0  0
 15  7  1  0  0  0  0
 16  8  1  0  0  0  0
M  END
$$$$
