energy: -14.650974068722 gnorm: 0.000529023128 xtb: 6.4.1 (afa7bdf)
 OpenBabel11042210553D

  9  9  0  0  0  0  0  0  0  0999 V2000
   -0.0072   -1.3485   -0.3517 O   0  0  0  0  0  0  0  0  0  0  0  0
    1.0666   -0.5384   -0.3450 C   0  0  0  0  0  0  0  0  0  0  0  0
    0.7053    0.7330   -0.0254 C   0  0  0  0  0  0  0  0  0  0  0  0
   -0.6975    0.6983    0.1783 C   0  0  0  0  0  0  0  0  0  0  0  0
   -1.0726   -0.5914   -0.0343 C   0  0  0  0  0  0  0  0  0  0  0  0
    2.0149   -0.9790   -0.5801 H   0  0  0  0  0  0  0  0  0  0  0  0
    1.3478    1.5855    0.0566 H   0  0  0  0  0  0  0  0  0  0  0  0
   -1.3310    1.5191    0.4447 H   0  0  0  0  0  0  0  0  0  0  0  0
   -2.0263   -1.0786    0.0072 H   0  0  0  0  0  0  0  0  0  0  0  0
  1  2  1  0  0  0  0
  1  5  1  0  0  0  0
  2  3  2  0  0  0  0
  3  7  1  0  0  0  0
  3  4  1  0  0  0  0
  4  8  1  0  0  0  0
  5  9  1  0  0  0  0
  5  4  2  0  0  0  0
  6  2  1  0  0  0  0
M  END
$$$$
