energy: -30.276766725209 gnorm: 0.000752783530 xtb: 6.4.1 (afa7bdf)
 OpenBabel11022218133D

 19 20  0  0  0  0  0  0  0  0999 V2000
   -2.5322   -0.7308    0.0859 C   0  0  0  0  0  0  0  0  0  0  0  0
   -1.3481    0.0370   -0.0175 C   0  0  0  0  0  0  0  0  0  0  0  0
    0.0220   -0.4120    0.0893 C   0  0  0  0  0  0  0  0  0  0  0  0
    1.1424    0.4565   -0.0561 C   0  0  0  0  0  0  0  0  0  0  0  0
    2.3355   -0.1686    0.0827 C   0  0  0  0  0  0  0  0  0  0  0  0
    2.1140   -1.8658    0.4011 S   0  0  0  0  0  0  0  0  0  0  0  0
    0.4058   -1.6969    0.3389 C   0  0  0  0  0  0  0  0  0  0  0  0
    3.7047    0.4063    0.0058 C   0  0  0  0  0  0  0  0  0  0  0  0
   -1.6479    1.3117   -0.2388 N   0  0  0  0  0  0  0  0  0  0  0  0
   -2.9736    1.3740   -0.2774 N   0  0  0  0  0  0  0  0  0  0  0  0
   -3.5517    0.1685   -0.0873 C   0  0  0  0  0  0  0  0  0  0  0  0
   -2.6127   -1.7832    0.2601 H   0  0  0  0  0  0  0  0  0  0  0  0
    1.0274    1.5055   -0.2577 H   0  0  0  0  0  0  0  0  0  0  0  0
   -0.2080   -2.5616    0.4925 H   0  0  0  0  0  0  0  0  0  0  0  0
    4.3163   -0.1484   -0.7058 H   0  0  0  0  0  0  0  0  0  0  0  0
    3.6522    1.4467   -0.3074 H   0  0  0  0  0  0  0  0  0  0  0  0
    4.1969    0.3575    0.9780 H   0  0  0  0  0  0  0  0  0  0  0  0
   -3.4274    2.2597   -0.4352 H   0  0  0  0  0  0  0  0  0  0  0  0
   -4.6158    0.0435   -0.0893 H   0  0  0  0  0  0  0  0  0  0  0  0
  1 12  1  0  0  0  0
  2  1  1  0  0  0  0
  2  3  1  0  0  0  0
  3  7  2  0  0  0  0
  4  5  2  0  0  0  0
  4  3  1  0  0  0  0
  5  6  1  0  0  0  0
  7  6  1  0  0  0  0
  7 14  1  0  0  0  0
  8  5  1  0  0  0  0
  8 17  1  0  0  0  0
  9  2  2  0  0  0  0
 10  9  1  0  0  0  0
 10 11  1  0  0  0  0
 11  1  2  0  0  0  0
 13  4  1  0  0  0  0
 15  8  1  0  0  0  0
 16  8  1  0  0  0  0
 18 10  1  0  0  0  0
 19 11  1  0  0  0  0
M  END
$$$$
