energy: -3.739285718001 gnorm: 0.000919269482 xtb: 6.4.1 (afa7bdf)
 OpenBabel11022218133D

 19 20  0  0  0  0  0  0  0  0999 V2000
   -2.5226   -0.7014    0.0811 C   0  0  0  0  0  0  0  0  0  0  0  0
   -1.3412    0.0768   -0.0187 C   0  0  0  0  0  0  0  0  0  0  0  0
    0.0388   -0.4266    0.0800 C   0  0  0  0  0  0  0  0  0  0  0  0
    1.1850    0.4307   -0.0326 C   0  0  0  0  0  0  0  0  0  0  0  0
    2.3704   -0.2129    0.0790 C   0  0  0  0  0  0  0  0  0  0  0  0
    2.0973   -1.9137    0.3360 S   0  0  0  0  0  0  0  0  0  0  0  0
    0.3804   -1.7267    0.2823 C   0  0  0  0  0  0  0  0  0  0  0  0
    3.7037    0.4145    0.0105 C   0  0  0  0  0  0  0  0  0  0  0  0
   -1.6530    1.3534   -0.2195 N   0  0  0  0  0  0  0  0  0  0  0  0
   -2.9735    1.3945   -0.2476 N   0  0  0  0  0  0  0  0  0  0  0  0
   -3.5601    0.1639   -0.0686 C   0  0  0  0  0  0  0  0  0  0  0  0
   -2.5831   -1.7651    0.2432 H   0  0  0  0  0  0  0  0  0  0  0  0
    1.0974    1.4932   -0.1921 H   0  0  0  0  0  0  0  0  0  0  0  0
   -0.3126   -2.5365    0.3948 H   0  0  0  0  0  0  0  0  0  0  0  0
    4.4229   -0.2583   -0.4589 H   0  0  0  0  0  0  0  0  0  0  0  0
    3.6751    1.3360   -0.5727 H   0  0  0  0  0  0  0  0  0  0  0  0
    4.0693    0.6557    1.0095 H   0  0  0  0  0  0  0  0  0  0  0  0
   -3.4782    2.2776   -0.3914 H   0  0  0  0  0  0  0  0  0  0  0  0
   -4.6160   -0.0550   -0.0526 H   0  0  0  0  0  0  0  0  0  0  0  0
  1 12  1  0  0  0  0
  2  3  1  0  0  0  0
  2  1  1  0  0  0  0
  3  7  2  0  0  0  0
  4  5  2  0  0  0  0
  4  3  1  0  0  0  0
  5  6  1  0  0  0  0
  7  6  1  0  0  0  0
  7 14  1  0  0  0  0
  8  5  1  0  0  0  0
  8 17  1  0  0  0  0
  9  2  2  0  0  0  0
 10  9  1  0  0  0  0
 10 11  1  0  0  0  0
 11 19  1  0  0  0  0
 11  1  2  0  0  0  0
 13  4  1  0  0  0  0
 15  8  1  0  0  0  0
 16  8  1  0  0  0  0
 18 10  1  0  0  0  0
M  END
$$$$
