          20
 
C            -2.5321551548           -0.7307725890            0.0858923552
C            -1.3480934040            0.0370230544           -0.0175252288
C             0.0220428723           -0.4119512182            0.0893035038
C             1.1424251060            0.4565362258           -0.0561100424
C             2.3355116744           -0.1685736371            0.0826903860
S             2.1139809846           -1.8658287050            0.4010887309
C             0.4058311885           -1.6968905863            0.3389454648
C             3.7047069841            0.4063089680            0.0058046341
N            -1.6478599907            1.3117152981           -0.2387885752
N            -2.9736059502            1.3740200326           -0.2773896038
C            -3.5516627158            0.1685347188           -0.0872892234
H            -2.6127084411           -1.7831852019            0.2600579314
H             1.0273521302            1.5055399180           -0.2577035486
H            -0.2079699473           -2.5615579754            0.4925096843
H             4.3162871273           -0.1483551939           -0.7057511663
H             3.6521651270            1.4466544801           -0.3073986045
H             4.1969233868            0.3575360942            0.9779878317
H            -3.4274158306            2.2597018058           -0.4352183747
H            -4.6157551471            0.0435445108           -0.0893201545
H             2.3253643590           -2.4002538130           -0.7885854497
          20
 
C            -2.5321551548           -0.7307725890            0.0858923552
C            -1.3480934040            0.0370230544           -0.0175252288
C             0.0220428723           -0.4119512182            0.0893035038
C             1.1424251060            0.4565362258           -0.0561100424
C             2.3355116744           -0.1685736371            0.0826903860
S             2.1139809846           -1.8658287050            0.4010887309
C             0.4058311885           -1.6968905863            0.3389454648
C             3.7047069841            0.4063089680            0.0058046341
N            -1.6478599907            1.3117152981           -0.2387885752
N            -2.9736059502            1.3740200326           -0.2773896038
C            -3.5516627158            0.1685347188           -0.0872892234
H            -2.6127084411           -1.7831852019            0.2600579314
H             1.0273521302            1.5055399180           -0.2577035486
H            -0.2079699473           -2.5615579754            0.4925096843
H             4.3162871273           -0.1483551939           -0.7057511663
H             3.6521651270            1.4466544801           -0.3073986045
H             4.1969233868            0.3575360942            0.9779878317
H            -3.4274158306            2.2597018058           -0.4352183747
H            -4.6157551471            0.0435445108           -0.0893201545
H             2.2750542191           -1.9196021461            1.7091970273
          20
 
C            -2.5321551548           -0.7307725890            0.0858923552
C            -1.3480934040            0.0370230544           -0.0175252288
C             0.0220428723           -0.4119512182            0.0893035038
C             1.1424251060            0.4565362258           -0.0561100424
C             2.3355116744           -0.1685736371            0.0826903860
S             2.1139809846           -1.8658287050            0.4010887309
C             0.4058311885           -1.6968905863            0.3389454648
C             3.7047069841            0.4063089680            0.0058046341
N            -1.6478599907            1.3117152981           -0.2387885752
N            -2.9736059502            1.3740200326           -0.2773896038
C            -3.5516627158            0.1685347188           -0.0872892234
H            -2.6127084411           -1.7831852019            0.2600579314
H             1.0273521302            1.5055399180           -0.2577035486
H            -0.2079699473           -2.5615579754            0.4925096843
H             4.3162871273           -0.1483551939           -0.7057511663
H             3.6521651270            1.4466544801           -0.3073986045
H             4.1969233868            0.3575360942            0.9779878317
H            -3.4274158306            2.2597018058           -0.4352183747
H            -4.6157551471            0.0435445108           -0.0893201545
H            -1.5369873200            0.7281088732            0.1094151889
          20
 
C            -2.5321551548           -0.7307725890            0.0858923552
C            -1.3480934040            0.0370230544           -0.0175252288
C             0.0220428723           -0.4119512182            0.0893035038
C             1.1424251060            0.4565362258           -0.0561100424
C             2.3355116744           -0.1685736371            0.0826903860
S             2.1139809846           -1.8658287050            0.4010887309
C             0.4058311885           -1.6968905863            0.3389454648
C             3.7047069841            0.4063089680            0.0058046341
N            -1.6478599907            1.3117152981           -0.2387885752
N            -2.9736059502            1.3740200326           -0.2773896038
C            -3.5516627158            0.1685347188           -0.0872892234
H            -2.6127084411           -1.7831852019            0.2600579314
H             1.0273521302            1.5055399180           -0.2577035486
H            -0.2079699473           -2.5615579754            0.4925096843
H             4.3162871273           -0.1483551939           -0.7057511663
H             3.6521651270            1.4466544801           -0.3073986045
H             4.1969233868            0.3575360942            0.9779878317
H            -3.4274158306            2.2597018058           -0.4352183747
H            -4.6157551471            0.0435445108           -0.0893201545
H            -1.5270712212            0.6480749793           -0.3716156790
          20
 
C            -2.5321551548           -0.7307725890            0.0858923552
C            -1.3480934040            0.0370230544           -0.0175252288
C             0.0220428723           -0.4119512182            0.0893035038
C             1.1424251060            0.4565362258           -0.0561100424
C             2.3355116744           -0.1685736371            0.0826903860
S             2.1139809846           -1.8658287050            0.4010887309
C             0.4058311885           -1.6968905863            0.3389454648
C             3.7047069841            0.4063089680            0.0058046341
N            -1.6478599907            1.3117152981           -0.2387885752
N            -2.9736059502            1.3740200326           -0.2773896038
C            -3.5516627158            0.1685347188           -0.0872892234
H            -2.6127084411           -1.7831852019            0.2600579314
H             1.0273521302            1.5055399180           -0.2577035486
H            -0.2079699473           -2.5615579754            0.4925096843
H             4.3162871273           -0.1483551939           -0.7057511663
H             3.6521651270            1.4466544801           -0.3073986045
H             4.1969233868            0.3575360942            0.9779878317
H            -3.4274158306            2.2597018058           -0.4352183747
H            -4.6157551471            0.0435445108           -0.0893201545
H            -2.9617678004           -0.2352510687            0.2626736426
          20
 
C            -2.5321551548           -0.7307725890            0.0858923552
C            -1.3480934040            0.0370230544           -0.0175252288
C             0.0220428723           -0.4119512182            0.0893035038
C             1.1424251060            0.4565362258           -0.0561100424
C             2.3355116744           -0.1685736371            0.0826903860
S             2.1139809846           -1.8658287050            0.4010887309
C             0.4058311885           -1.6968905863            0.3389454648
C             3.7047069841            0.4063089680            0.0058046341
N            -1.6478599907            1.3117152981           -0.2387885752
N            -2.9736059502            1.3740200326           -0.2773896038
C            -3.5516627158            0.1685347188           -0.0872892234
H            -2.6127084411           -1.7831852019            0.2600579314
H             1.0273521302            1.5055399180           -0.2577035486
H            -0.2079699473           -2.5615579754            0.4925096843
H             4.3162871273           -0.1483551939           -0.7057511663
H             3.6521651270            1.4466544801           -0.3073986045
H             4.1969233868            0.3575360942            0.9779878317
H            -3.4274158306            2.2597018058           -0.4352183747
H            -4.6157551471            0.0435445108           -0.0893201545
H            -2.9509450108           -0.3231948172           -0.2608153917
          20
 
C            -2.5321551548           -0.7307725890            0.0858923552
C            -1.3480934040            0.0370230544           -0.0175252288
C             0.0220428723           -0.4119512182            0.0893035038
C             1.1424251060            0.4565362258           -0.0561100424
C             2.3355116744           -0.1685736371            0.0826903860
S             2.1139809846           -1.8658287050            0.4010887309
C             0.4058311885           -1.6968905863            0.3389454648
C             3.7047069841            0.4063089680            0.0058046341
N            -1.6478599907            1.3117152981           -0.2387885752
N            -2.9736059502            1.3740200326           -0.2773896038
C            -3.5516627158            0.1685347188           -0.0872892234
H            -2.6127084411           -1.7831852019            0.2600579314
H             1.0273521302            1.5055399180           -0.2577035486
H            -0.2079699473           -2.5615579754            0.4925096843
H             4.3162871273           -0.1483551939           -0.7057511663
H             3.6521651270            1.4466544801           -0.3073986045
H             4.1969233868            0.3575360942            0.9779878317
H            -3.4274158306            2.2597018058           -0.4352183747
H            -4.6157551471            0.0435445108           -0.0893201545
H            -2.8662474688            1.1729988838           -0.2397321823
          20
 
C            -2.5321551548           -0.7307725890            0.0858923552
C            -1.3480934040            0.0370230544           -0.0175252288
C             0.0220428723           -0.4119512182            0.0893035038
C             1.1424251060            0.4565362258           -0.0561100424
C             2.3355116744           -0.1685736371            0.0826903860
S             2.1139809846           -1.8658287050            0.4010887309
C             0.4058311885           -1.6968905863            0.3389454648
C             3.7047069841            0.4063089680            0.0058046341
N            -1.6478599907            1.3117152981           -0.2387885752
N            -2.9736059502            1.3740200326           -0.2773896038
C            -3.5516627158            0.1685347188           -0.0872892234
H            -2.6127084411           -1.7831852019            0.2600579314
H             1.0273521302            1.5055399180           -0.2577035486
H            -0.2079699473           -2.5615579754            0.4925096843
H             4.3162871273           -0.1483551939           -0.7057511663
H             3.6521651270            1.4466544801           -0.3073986045
H             4.1969233868            0.3575360942            0.9779878317
H            -3.4274158306            2.2597018058           -0.4352183747
H            -4.6157551471            0.0435445108           -0.0893201545
H             0.2299227181           -1.0571657373           -0.0604808968
          20
 
C            -2.5321551548           -0.7307725890            0.0858923552
C            -1.3480934040            0.0370230544           -0.0175252288
C             0.0220428723           -0.4119512182            0.0893035038
C             1.1424251060            0.4565362258           -0.0561100424
C             2.3355116744           -0.1685736371            0.0826903860
S             2.1139809846           -1.8658287050            0.4010887309
C             0.4058311885           -1.6968905863            0.3389454648
C             3.7047069841            0.4063089680            0.0058046341
N            -1.6478599907            1.3117152981           -0.2387885752
N            -2.9736059502            1.3740200326           -0.2773896038
C            -3.5516627158            0.1685347188           -0.0872892234
H            -2.6127084411           -1.7831852019            0.2600579314
H             1.0273521302            1.5055399180           -0.2577035486
H            -0.2079699473           -2.5615579754            0.4925096843
H             4.3162871273           -0.1483551939           -0.7057511663
H             3.6521651270            1.4466544801           -0.3073986045
H             4.1969233868            0.3575360942            0.9779878317
H            -3.4274158306            2.2597018058           -0.4352183747
H            -4.6157551471            0.0435445108           -0.0893201545
H             0.2197729505           -0.9559080653            0.4711776802
          20
 
C            -2.5321551548           -0.7307725890            0.0858923552
C            -1.3480934040            0.0370230544           -0.0175252288
C             0.0220428723           -0.4119512182            0.0893035038
C             1.1424251060            0.4565362258           -0.0561100424
C             2.3355116744           -0.1685736371            0.0826903860
S             2.1139809846           -1.8658287050            0.4010887309
C             0.4058311885           -1.6968905863            0.3389454648
C             3.7047069841            0.4063089680            0.0058046341
N            -1.6478599907            1.3117152981           -0.2387885752
N            -2.9736059502            1.3740200326           -0.2773896038
C            -3.5516627158            0.1685347188           -0.0872892234
H            -2.6127084411           -1.7831852019            0.2600579314
H             1.0273521302            1.5055399180           -0.2577035486
H            -0.2079699473           -2.5615579754            0.4925096843
H             4.3162871273           -0.1483551939           -0.7057511663
H             3.6521651270            1.4466544801           -0.3073986045
H             4.1969233868            0.3575360942            0.9779878317
H            -3.4274158306            2.2597018058           -0.4352183747
H            -4.6157551471            0.0435445108           -0.0893201545
H             1.7020578941            0.0608750498           -0.2517558366
          20
 
C            -2.5321551548           -0.7307725890            0.0858923552
C            -1.3480934040            0.0370230544           -0.0175252288
C             0.0220428723           -0.4119512182            0.0893035038
C             1.1424251060            0.4565362258           -0.0561100424
C             2.3355116744           -0.1685736371            0.0826903860
S             2.1139809846           -1.8658287050            0.4010887309
C             0.4058311885           -1.6968905863            0.3389454648
C             3.7047069841            0.4063089680            0.0058046341
N            -1.6478599907            1.3117152981           -0.2387885752
N            -2.9736059502            1.3740200326           -0.2773896038
C            -3.5516627158            0.1685347188           -0.0872892234
H            -2.6127084411           -1.7831852019            0.2600579314
H             1.0273521302            1.5055399180           -0.2577035486
H            -0.2079699473           -2.5615579754            0.4925096843
H             4.3162871273           -0.1483551939           -0.7057511663
H             3.6521651270            1.4466544801           -0.3073986045
H             4.1969233868            0.3575360942            0.9779878317
H            -3.4274158306            2.2597018058           -0.4352183747
H            -4.6157551471            0.0435445108           -0.0893201545
H             1.6919995756            0.1635472081            0.2889223577
          20
 
C            -2.5321551548           -0.7307725890            0.0858923552
C            -1.3480934040            0.0370230544           -0.0175252288
C             0.0220428723           -0.4119512182            0.0893035038
C             1.1424251060            0.4565362258           -0.0561100424
C             2.3355116744           -0.1685736371            0.0826903860
S             2.1139809846           -1.8658287050            0.4010887309
C             0.4058311885           -1.6968905863            0.3389454648
C             3.7047069841            0.4063089680            0.0058046341
N            -1.6478599907            1.3117152981           -0.2387885752
N            -2.9736059502            1.3740200326           -0.2773896038
C            -3.5516627158            0.1685347188           -0.0872892234
H            -2.6127084411           -1.7831852019            0.2600579314
H             1.0273521302            1.5055399180           -0.2577035486
H            -0.2079699473           -2.5615579754            0.4925096843
H             4.3162871273           -0.1483551939           -0.7057511663
H             3.6521651270            1.4466544801           -0.3073986045
H             4.1969233868            0.3575360942            0.9779878317
H            -3.4274158306            2.2597018058           -0.4352183747
H            -4.6157551471            0.0435445108           -0.0893201545
H            -2.2865243448            1.2716366590           -0.4930258870
          20
 
C            -2.5321551548           -0.7307725890            0.0858923552
C            -1.3480934040            0.0370230544           -0.0175252288
C             0.0220428723           -0.4119512182            0.0893035038
C             1.1424251060            0.4565362258           -0.0561100424
C             2.3355116744           -0.1685736371            0.0826903860
S             2.1139809846           -1.8658287050            0.4010887309
C             0.4058311885           -1.6968905863            0.3389454648
C             3.7047069841            0.4063089680            0.0058046341
N            -1.6478599907            1.3117152981           -0.2387885752
N            -2.9736059502            1.3740200326           -0.2773896038
C            -3.5516627158            0.1685347188           -0.0872892234
H            -2.6127084411           -1.7831852019            0.2600579314
H             1.0273521302            1.5055399180           -0.2577035486
H            -0.2079699473           -2.5615579754            0.4925096843
H             4.3162871273           -0.1483551939           -0.7057511663
H             3.6521651270            1.4466544801           -0.3073986045
H             4.1969233868            0.3575360942            0.9779878317
H            -3.4274158306            2.2597018058           -0.4352183747
H            -4.6157551471            0.0435445108           -0.0893201545
H            -2.2956313261            1.3526267066           -0.0121390722
          20
 
C            -2.5321551548           -0.7307725890            0.0858923552
C            -1.3480934040            0.0370230544           -0.0175252288
C             0.0220428723           -0.4119512182            0.0893035038
C             1.1424251060            0.4565362258           -0.0561100424
C             2.3355116744           -0.1685736371            0.0826903860
S             2.1139809846           -1.8658287050            0.4010887309
C             0.4058311885           -1.6968905863            0.3389454648
C             3.7047069841            0.4063089680            0.0058046341
N            -1.6478599907            1.3117152981           -0.2387885752
N            -2.9736059502            1.3740200326           -0.2773896038
C            -3.5516627158            0.1685347188           -0.0872892234
H            -2.6127084411           -1.7831852019            0.2600579314
H             1.0273521302            1.5055399180           -0.2577035486
H            -0.2079699473           -2.5615579754            0.4925096843
H             4.3162871273           -0.1483551939           -0.7057511663
H             3.6521651270            1.4466544801           -0.3073986045
H             4.1969233868            0.3575360942            0.9779878317
H            -3.4274158306            2.2597018058           -0.4352183747
H            -4.6157551471            0.0435445108           -0.0893201545
H            -1.8981025348           -0.4016431321           -0.2031493843
          20
 
C            -2.5321551548           -0.7307725890            0.0858923552
C            -1.3480934040            0.0370230544           -0.0175252288
C             0.0220428723           -0.4119512182            0.0893035038
C             1.1424251060            0.4565362258           -0.0561100424
C             2.3355116744           -0.1685736371            0.0826903860
S             2.1139809846           -1.8658287050            0.4010887309
C             0.4058311885           -1.6968905863            0.3389454648
C             3.7047069841            0.4063089680            0.0058046341
N            -1.6478599907            1.3117152981           -0.2387885752
N            -2.9736059502            1.3740200326           -0.2773896038
C            -3.5516627158            0.1685347188           -0.0872892234
H            -2.6127084411           -1.7831852019            0.2600579314
H             1.0273521302            1.5055399180           -0.2577035486
H            -0.2079699473           -2.5615579754            0.4925096843
H             4.3162871273           -0.1483551939           -0.7057511663
H             3.6521651270            1.4466544801           -0.3073986045
H             4.1969233868            0.3575360942            0.9779878317
H            -3.4274158306            2.2597018058           -0.4352183747
H            -4.6157551471            0.0435445108           -0.0893201545
H            -1.9097046376           -0.3210332766            0.2777475859
          20
 
C            -2.5321551548           -0.7307725890            0.0858923552
C            -1.3480934040            0.0370230544           -0.0175252288
C             0.0220428723           -0.4119512182            0.0893035038
C             1.1424251060            0.4565362258           -0.0561100424
C             2.3355116744           -0.1685736371            0.0826903860
S             2.1139809846           -1.8658287050            0.4010887309
C             0.4058311885           -1.6968905863            0.3389454648
C             3.7047069841            0.4063089680            0.0058046341
N            -1.6478599907            1.3117152981           -0.2387885752
N            -2.9736059502            1.3740200326           -0.2773896038
C            -3.5516627158            0.1685347188           -0.0872892234
H            -2.6127084411           -1.7831852019            0.2600579314
H             1.0273521302            1.5055399180           -0.2577035486
H            -0.2079699473           -2.5615579754            0.4925096843
H             4.3162871273           -0.1483551939           -0.7057511663
H             3.6521651270            1.4466544801           -0.3073986045
H             4.1969233868            0.3575360942            0.9779878317
H            -3.4274158306            2.2597018058           -0.4352183747
H            -4.6157551471            0.0435445108           -0.0893201545
H            -3.1601132237            0.7604172702           -0.4476459483
          20
 
C            -2.5321551548           -0.7307725890            0.0858923552
C            -1.3480934040            0.0370230544           -0.0175252288
C             0.0220428723           -0.4119512182            0.0893035038
C             1.1424251060            0.4565362258           -0.0561100424
C             2.3355116744           -0.1685736371            0.0826903860
S             2.1139809846           -1.8658287050            0.4010887309
C             0.4058311885           -1.6968905863            0.3389454648
C             3.7047069841            0.4063089680            0.0058046341
N            -1.6478599907            1.3117152981           -0.2387885752
N            -2.9736059502            1.3740200326           -0.2773896038
C            -3.5516627158            0.1685347188           -0.0872892234
H            -2.6127084411           -1.7831852019            0.2600579314
H             1.0273521302            1.5055399180           -0.2577035486
H            -0.2079699473           -2.5615579754            0.4925096843
H             4.3162871273           -0.1483551939           -0.7057511663
H             3.6521651270            1.4466544801           -0.3073986045
H             4.1969233868            0.3575360942            0.9779878317
H            -3.4274158306            2.2597018058           -0.4352183747
H            -4.6157551471            0.0435445108           -0.0893201545
H            -3.1718772826            0.8481806276            0.0758530531
          20
 
C            -2.5321551548           -0.7307725890            0.0858923552
C            -1.3480934040            0.0370230544           -0.0175252288
C             0.0220428723           -0.4119512182            0.0893035038
C             1.1424251060            0.4565362258           -0.0561100424
C             2.3355116744           -0.1685736371            0.0826903860
S             2.1139809846           -1.8658287050            0.4010887309
C             0.4058311885           -1.6968905863            0.3389454648
C             3.7047069841            0.4063089680            0.0058046341
N            -1.6478599907            1.3117152981           -0.2387885752
N            -2.9736059502            1.3740200326           -0.2773896038
C            -3.5516627158            0.1685347188           -0.0872892234
H            -2.6127084411           -1.7831852019            0.2600579314
H             1.0273521302            1.5055399180           -0.2577035486
H            -0.2079699473           -2.5615579754            0.4925096843
H             4.3162871273           -0.1483551939           -0.7057511663
H             3.6521651270            1.4466544801           -0.3073986045
H             4.1969233868            0.3575360942            0.9779878317
H            -3.4274158306            2.2597018058           -0.4352183747
H            -4.6157551471            0.0435445108           -0.0893201545
H             0.5174411404           -0.0598972564           -0.2445417779
          20
 
C            -2.5321551548           -0.7307725890            0.0858923552
C            -1.3480934040            0.0370230544           -0.0175252288
C             0.0220428723           -0.4119512182            0.0893035038
C             1.1424251060            0.4565362258           -0.0561100424
C             2.3355116744           -0.1685736371            0.0826903860
S             2.1139809846           -1.8658287050            0.4010887309
C             0.4058311885           -1.6968905863            0.3389454648
C             3.7047069841            0.4063089680            0.0058046341
N            -1.6478599907            1.3117152981           -0.2387885752
N            -2.9736059502            1.3740200326           -0.2773896038
C            -3.5516627158            0.1685347188           -0.0872892234
H            -2.6127084411           -1.7831852019            0.2600579314
H             1.0273521302            1.5055399180           -0.2577035486
H            -0.2079699473           -2.5615579754            0.4925096843
H             4.3162871273           -0.1483551939           -0.7057511663
H             3.6521651270            1.4466544801           -0.3073986045
H             4.1969233868            0.3575360942            0.9779878317
H            -3.4274158306            2.2597018058           -0.4352183747
H            -4.6157551471            0.0435445108           -0.0893201545
H             0.5097773986            0.0406721334            0.2872890779
