energy: -30.276768268071 gnorm: 0.000733124339 xtb: 6.4.1 (afa7bdf)
 OpenBabel11022218133D

 19 20  0  0  0  0  0  0  0  0999 V2000
    2.4926   -0.5395   -0.6692 C   0  0  0  0  0  0  0  0  0  0  0  0
    1.3386    0.0874   -0.1425 C   0  0  0  0  0  0  0  0  0  0  0  0
   -0.0343   -0.3607   -0.2118 C   0  0  0  0  0  0  0  0  0  0  0  0
   -1.1185    0.3490    0.3811 C   0  0  0  0  0  0  0  0  0  0  0  0
   -2.3215   -0.2444    0.1962 C   0  0  0  0  0  0  0  0  0  0  0  0
   -2.1548   -1.7123   -0.7251 S   0  0  0  0  0  0  0  0  0  0  0  0
   -0.4550   -1.4950   -0.8418 C   0  0  0  0  0  0  0  0  0  0  0  0
   -3.6629    0.2023    0.6568 C   0  0  0  0  0  0  0  0  0  0  0  0
    1.6716    1.2185    0.4685 N   0  0  0  0  0  0  0  0  0  0  0  0
    2.9892    1.3263    0.3453 N   0  0  0  0  0  0  0  0  0  0  0  0
    3.5295    0.2909   -0.3325 C   0  0  0  0  0  0  0  0  0  0  0  0
    2.5434   -1.4608   -1.2106 H   0  0  0  0  0  0  0  0  0  0  0  0
   -0.9715    1.2664    0.9204 H   0  0  0  0  0  0  0  0  0  0  0  0
    0.1268   -2.2221   -1.3718 H   0  0  0  0  0  0  0  0  0  0  0  0
   -3.5619    1.0732    1.3006 H   0  0  0  0  0  0  0  0  0  0  0  0
   -4.2929    0.4663   -0.1936 H   0  0  0  0  0  0  0  0  0  0  0  0
   -4.1647   -0.5917    1.2096 H   0  0  0  0  0  0  0  0  0  0  0  0
    3.4642    2.1224    0.7401 H   0  0  0  0  0  0  0  0  0  0  0  0
    4.5823    0.2235   -0.5197 H   0  0  0  0  0  0  0  0  0  0  0  0
  1 11  2  0  0  0  0
  1  2  1  0  0  0  0
  2  9  2  0  0  0  0
  3  2  1  0  0  0  0
  3  4  1  0  0  0  0
  4 13  1  0  0  0  0
  5  4  2  0  0  0  0
  5  8  1  0  0  0  0
  6  5  1  0  0  0  0
  7  6  1  0  0  0  0
  7  3  2  0  0  0  0
  8 17  1  0  0  0  0
  8 15  1  0  0  0  0
 10  9  1  0  0  0  0
 10 18  1  0  0  0  0
 11 10  1  0  0  0  0
 12  1  1  0  0  0  0
 14  7  1  0  0  0  0
 16  8  1  0  0  0  0
 19 11  1  0  0  0  0
M  END
$$$$
