energy: -3.739281499684 gnorm: 0.000826680986 xtb: 6.4.1 (afa7bdf)
 OpenBabel11022218133D

 19 20  0  0  0  0  0  0  0  0999 V2000
    2.4836   -0.5133   -0.6549 C   0  0  0  0  0  0  0  0  0  0  0  0
    1.3322    0.1238   -0.1258 C   0  0  0  0  0  0  0  0  0  0  0  0
   -0.0493   -0.3787   -0.2050 C   0  0  0  0  0  0  0  0  0  0  0  0
   -1.1643    0.3308    0.3571 C   0  0  0  0  0  0  0  0  0  0  0  0
   -2.3557   -0.2888    0.1892 C   0  0  0  0  0  0  0  0  0  0  0  0
   -2.1287   -1.7792   -0.6833 S   0  0  0  0  0  0  0  0  0  0  0  0
   -0.4210   -1.5416   -0.8024 C   0  0  0  0  0  0  0  0  0  0  0  0
   -3.6630    0.2116    0.6542 C   0  0  0  0  0  0  0  0  0  0  0  0
    1.6751    1.2630    0.4672 N   0  0  0  0  0  0  0  0  0  0  0  0
    2.9858    1.3546    0.3262 N   0  0  0  0  0  0  0  0  0  0  0  0
    3.5354    0.2934   -0.3541 C   0  0  0  0  0  0  0  0  0  0  0  0
    2.5154   -1.4490   -1.1882 H   0  0  0  0  0  0  0  0  0  0  0  0
   -1.0506    1.2746    0.8659 H   0  0  0  0  0  0  0  0  0  0  0  0
    0.2454   -2.2280   -1.2860 H   0  0  0  0  0  0  0  0  0  0  0  0
   -3.5475    0.8823    1.5069 H   0  0  0  0  0  0  0  0  0  0  0  0
   -4.1727    0.7583   -0.1403 H   0  0  0  0  0  0  0  0  0  0  0  0
   -4.3057   -0.6143    0.9623 H   0  0  0  0  0  0  0  0  0  0  0  0
    3.5087    2.1552    0.7017 H   0  0  0  0  0  0  0  0  0  0  0  0
    4.5771    0.1450   -0.5907 H   0  0  0  0  0  0  0  0  0  0  0  0
  1 11  2  0  0  0  0
  1  2  1  0  0  0  0
  2  9  2  0  0  0  0
  3  2  1  0  0  0  0
  3  4  1  0  0  0  0
  4 13  1  0  0  0  0
  5  4  2  0  0  0  0
  5  8  1  0  0  0  0
  6  5  1  0  0  0  0
  7  6  1  0  0  0  0
  7  3  2  0  0  0  0
  8 17  1  0  0  0  0
  8 15  1  0  0  0  0
 10  9  1  0  0  0  0
 10 18  1  0  0  0  0
 11 10  1  0  0  0  0
 12  1  1  0  0  0  0
 14  7  1  0  0  0  0
 16  8  1  0  0  0  0
 19 11  1  0  0  0  0
M  END
$$$$
