          20
 
C             2.4925556216           -0.5395006386           -0.6691972837
C             1.3385537188            0.0874431623           -0.1424941699
C            -0.0342642833           -0.3606797136           -0.2117926018
C            -1.1185129291            0.3489586747            0.3810766858
C            -2.3215068900           -0.2443937267            0.1961503990
S            -2.1548474950           -1.7122826816           -0.7250560978
C            -0.4550408288           -1.4949954344           -0.8418356490
C            -3.6629010536            0.2023417311            0.6567923730
N             1.6715930271            1.2185423000            0.4685408098
N             2.9892261945            1.3263156942            0.3452569251
C             3.5295265496            0.2908731585           -0.3325252127
H             2.5434296111           -1.4607576108           -1.2105770469
H            -0.9714550249            1.2664320616            0.9204251224
H             0.1267581324           -2.2221008436           -1.3717739111
H            -3.5619066051            1.0731899889            1.3006467397
H            -4.2929426144            0.4663313990           -0.1936285622
H            -4.1647437898           -0.5916784589            1.2096011991
H             3.4641697579            2.1224261622            0.7401187913
H             4.5823099012            0.2235357758           -0.5197275100
H            -2.1936998358           -2.6364904212            0.2182368505
          20
 
C             2.4925556216           -0.5395006386           -0.6691972837
C             1.3385537188            0.0874431623           -0.1424941699
C            -0.0342642833           -0.3606797136           -0.2117926018
C            -1.1185129291            0.3489586747            0.3810766858
C            -2.3215068900           -0.2443937267            0.1961503990
S            -2.1548474950           -1.7122826816           -0.7250560978
C            -0.4550408288           -1.4949954344           -0.8418356490
C            -3.6629010536            0.2023417311            0.6567923730
N             1.6715930271            1.2185423000            0.4685408098
N             2.9892261945            1.3263156942            0.3452569251
C             3.5295265496            0.2908731585           -0.3325252127
H             2.5434296111           -1.4607576108           -1.2105770469
H            -0.9714550249            1.2664320616            0.9204251224
H             0.1267581324           -2.2221008436           -1.3717739111
H            -3.5619066051            1.0731899889            1.3006467397
H            -4.2929426144            0.4663313990           -0.1936285622
H            -4.1647437898           -0.5916784589            1.2096011991
H             3.4641697579            2.1224261622            0.7401187913
H             4.5823099012            0.2235357758           -0.5197275100
H            -2.5038936862           -1.3152717022           -1.9336620226
          20
 
C             2.4925556216           -0.5395006386           -0.6691972837
C             1.3385537188            0.0874431623           -0.1424941699
C            -0.0342642833           -0.3606797136           -0.2117926018
C            -1.1185129291            0.3489586747            0.3810766858
C            -2.3215068900           -0.2443937267            0.1961503990
S            -2.1548474950           -1.7122826816           -0.7250560978
C            -0.4550408288           -1.4949954344           -0.8418356490
C            -3.6629010536            0.2023417311            0.6567923730
N             1.6715930271            1.2185423000            0.4685408098
N             2.9892261945            1.3263156942            0.3452569251
C             3.5295265496            0.2908731585           -0.3325252127
H             2.5434296111           -1.4607576108           -1.2105770469
H            -0.9714550249            1.2664320616            0.9204251224
H             0.1267581324           -2.2221008436           -1.3717739111
H            -3.5619066051            1.0731899889            1.3006467397
H            -4.2929426144            0.4663313990           -0.1936285622
H            -4.1647437898           -0.5916784589            1.2096011991
H             3.4641697579            2.1224261622            0.7401187913
H             4.5823099012            0.2235357758           -0.5197275100
H             1.5095410829            0.7877104199           -0.0435733390
          20
 
C             2.4925556216           -0.5395006386           -0.6691972837
C             1.3385537188            0.0874431623           -0.1424941699
C            -0.0342642833           -0.3606797136           -0.2117926018
C            -1.1185129291            0.3489586747            0.3810766858
C            -2.3215068900           -0.2443937267            0.1961503990
S            -2.1548474950           -1.7122826816           -0.7250560978
C            -0.4550408288           -1.4949954344           -0.8418356490
C            -3.6629010536            0.2023417311            0.6567923730
N             1.6715930271            1.2185423000            0.4685408098
N             2.9892261945            1.3263156942            0.3452569251
C             3.5295265496            0.2908731585           -0.3325252127
H             2.5434296111           -1.4607576108           -1.2105770469
H            -0.9714550249            1.2664320616            0.9204251224
H             0.1267581324           -2.2221008436           -1.3717739111
H            -3.5619066051            1.0731899889            1.3006467397
H            -4.2929426144            0.4663313990           -0.1936285622
H            -4.1647437898           -0.5916784589            1.2096011991
H             3.4641697579            2.1224261622            0.7401187913
H             4.5823099012            0.2235357758           -0.5197275100
H             1.5689498373            0.5451720051            0.3753967272
          20
 
C             2.4925556216           -0.5395006386           -0.6691972837
C             1.3385537188            0.0874431623           -0.1424941699
C            -0.0342642833           -0.3606797136           -0.2117926018
C            -1.1185129291            0.3489586747            0.3810766858
C            -2.3215068900           -0.2443937267            0.1961503990
S            -2.1548474950           -1.7122826816           -0.7250560978
C            -0.4550408288           -1.4949954344           -0.8418356490
C            -3.6629010536            0.2023417311            0.6567923730
N             1.6715930271            1.2185423000            0.4685408098
N             2.9892261945            1.3263156942            0.3452569251
C             3.5295265496            0.2908731585           -0.3325252127
H             2.5434296111           -1.4607576108           -1.2105770469
H            -0.9714550249            1.2664320616            0.9204251224
H             0.1267581324           -2.2221008436           -1.3717739111
H            -3.5619066051            1.0731899889            1.3006467397
H            -4.2929426144            0.4663313990           -0.1936285622
H            -4.1647437898           -0.5916784589            1.2096011991
H             3.4641697579            2.1224261622            0.7401187913
H             4.5823099012            0.2235357758           -0.5197275100
H             2.8938489203            0.0063576780           -0.7178520252
          20
 
C             2.4925556216           -0.5395006386           -0.6691972837
C             1.3385537188            0.0874431623           -0.1424941699
C            -0.0342642833           -0.3606797136           -0.2117926018
C            -1.1185129291            0.3489586747            0.3810766858
C            -2.3215068900           -0.2443937267            0.1961503990
S            -2.1548474950           -1.7122826816           -0.7250560978
C            -0.4550408288           -1.4949954344           -0.8418356490
C            -3.6629010536            0.2023417311            0.6567923730
N             1.6715930271            1.2185423000            0.4685408098
N             2.9892261945            1.3263156942            0.3452569251
C             3.5295265496            0.2908731585           -0.3325252127
H             2.5434296111           -1.4607576108           -1.2105770469
H            -0.9714550249            1.2664320616            0.9204251224
H             0.1267581324           -2.2221008436           -1.3717739111
H            -3.5619066051            1.0731899889            1.3006467397
H            -4.2929426144            0.4663313990           -0.1936285622
H            -4.1647437898           -0.5916784589            1.2096011991
H             3.4641697579            2.1224261622            0.7401187913
H             4.5823099012            0.2235357758           -0.5197275100
H             2.9584484189           -0.2584105028           -0.2622060565
          20
 
C             2.4925556216           -0.5395006386           -0.6691972837
C             1.3385537188            0.0874431623           -0.1424941699
C            -0.0342642833           -0.3606797136           -0.2117926018
C            -1.1185129291            0.3489586747            0.3810766858
C            -2.3215068900           -0.2443937267            0.1961503990
S            -2.1548474950           -1.7122826816           -0.7250560978
C            -0.4550408288           -1.4949954344           -0.8418356490
C            -3.6629010536            0.2023417311            0.6567923730
N             1.6715930271            1.2185423000            0.4685408098
N             2.9892261945            1.3263156942            0.3452569251
C             3.5295265496            0.2908731585           -0.3325252127
H             2.5434296111           -1.4607576108           -1.2105770469
H            -0.9714550249            1.2664320616            0.9204251224
H             0.1267581324           -2.2221008436           -1.3717739111
H            -3.5619066051            1.0731899889            1.3006467397
H            -4.2929426144            0.4663313990           -0.1936285622
H            -4.1647437898           -0.5916784589            1.2096011991
H             3.4641697579            2.1224261622            0.7401187913
H             4.5823099012            0.2235357758           -0.5197275100
H             2.8768745963            1.1459756403            0.2546591094
          20
 
C             2.4925556216           -0.5395006386           -0.6691972837
C             1.3385537188            0.0874431623           -0.1424941699
C            -0.0342642833           -0.3606797136           -0.2117926018
C            -1.1185129291            0.3489586747            0.3810766858
C            -2.3215068900           -0.2443937267            0.1961503990
S            -2.1548474950           -1.7122826816           -0.7250560978
C            -0.4550408288           -1.4949954344           -0.8418356490
C            -3.6629010536            0.2023417311            0.6567923730
N             1.6715930271            1.2185423000            0.4685408098
N             2.9892261945            1.3263156942            0.3452569251
C             3.5295265496            0.2908731585           -0.3325252127
H             2.5434296111           -1.4607576108           -1.2105770469
H            -0.9714550249            1.2664320616            0.9204251224
H             0.1267581324           -2.2221008436           -1.3717739111
H            -3.5619066051            1.0731899889            1.3006467397
H            -4.2929426144            0.4663313990           -0.1936285622
H            -4.1647437898           -0.5916784589            1.2096011991
H             3.4641697579            2.1224261622            0.7401187913
H             4.5823099012            0.2235357758           -0.5197275100
H            -0.2207492829           -1.0267577792           -0.2712495302
          20
 
C             2.4925556216           -0.5395006386           -0.6691972837
C             1.3385537188            0.0874431623           -0.1424941699
C            -0.0342642833           -0.3606797136           -0.2117926018
C            -1.1185129291            0.3489586747            0.3810766858
C            -2.3215068900           -0.2443937267            0.1961503990
S            -2.1548474950           -1.7122826816           -0.7250560978
C            -0.4550408288           -1.4949954344           -0.8418356490
C            -3.6629010536            0.2023417311            0.6567923730
N             1.6715930271            1.2185423000            0.4685408098
N             2.9892261945            1.3263156942            0.3452569251
C             3.5295265496            0.2908731585           -0.3325252127
H             2.5434296111           -1.4607576108           -1.2105770469
H            -0.9714550249            1.2664320616            0.9204251224
H             0.1267581324           -2.2221008436           -1.3717739111
H            -3.5619066051            1.0731899889            1.3006467397
H            -4.2929426144            0.4663313990           -0.1936285622
H            -4.1647437898           -0.5916784589            1.2096011991
H             3.4641697579            2.1224261622            0.7401187913
H             4.5823099012            0.2235357758           -0.5197275100
H            -0.2872310779           -0.7463936951           -0.7295049301
          20
 
C             2.4925556216           -0.5395006386           -0.6691972837
C             1.3385537188            0.0874431623           -0.1424941699
C            -0.0342642833           -0.3606797136           -0.2117926018
C            -1.1185129291            0.3489586747            0.3810766858
C            -2.3215068900           -0.2443937267            0.1961503990
S            -2.1548474950           -1.7122826816           -0.7250560978
C            -0.4550408288           -1.4949954344           -0.8418356490
C            -3.6629010536            0.2023417311            0.6567923730
N             1.6715930271            1.2185423000            0.4685408098
N             2.9892261945            1.3263156942            0.3452569251
C             3.5295265496            0.2908731585           -0.3325252127
H             2.5434296111           -1.4607576108           -1.2105770469
H            -0.9714550249            1.2664320616            0.9204251224
H             0.1267581324           -2.2221008436           -1.3717739111
H            -3.5619066051            1.0731899889            1.3006467397
H            -4.2929426144            0.4663313990           -0.1936285622
H            -4.1647437898           -0.5916784589            1.2096011991
H             3.4641697579            2.1224261622            0.7401187913
H             4.5823099012            0.2235357758           -0.5197275100
H            -1.6454710828           -0.1160088317            0.4998873551
          20
 
C             2.4925556216           -0.5395006386           -0.6691972837
C             1.3385537188            0.0874431623           -0.1424941699
C            -0.0342642833           -0.3606797136           -0.2117926018
C            -1.1185129291            0.3489586747            0.3810766858
C            -2.3215068900           -0.2443937267            0.1961503990
S            -2.1548474950           -1.7122826816           -0.7250560978
C            -0.4550408288           -1.4949954344           -0.8418356490
C            -3.6629010536            0.2023417311            0.6567923730
N             1.6715930271            1.2185423000            0.4685408098
N             2.9892261945            1.3263156942            0.3452569251
C             3.5295265496            0.2908731585           -0.3325252127
H             2.5434296111           -1.4607576108           -1.2105770469
H            -0.9714550249            1.2664320616            0.9204251224
H             0.1267581324           -2.2221008436           -1.3717739111
H            -3.5619066051            1.0731899889            1.3006467397
H            -4.2929426144            0.4663313990           -0.1936285622
H            -4.1647437898           -0.5916784589            1.2096011991
H             3.4641697579            2.1224261622            0.7401187913
H             4.5823099012            0.2235357758           -0.5197275100
H            -1.7133410284            0.1687298365            0.0337452909
          20
 
C             2.4925556216           -0.5395006386           -0.6691972837
C             1.3385537188            0.0874431623           -0.1424941699
C            -0.0342642833           -0.3606797136           -0.2117926018
C            -1.1185129291            0.3489586747            0.3810766858
C            -2.3215068900           -0.2443937267            0.1961503990
S            -2.1548474950           -1.7122826816           -0.7250560978
C            -0.4550408288           -1.4949954344           -0.8418356490
C            -3.6629010536            0.2023417311            0.6567923730
N             1.6715930271            1.2185423000            0.4685408098
N             2.9892261945            1.3263156942            0.3452569251
C             3.5295265496            0.2908731585           -0.3325252127
H             2.5434296111           -1.4607576108           -1.2105770469
H            -0.9714550249            1.2664320616            0.9204251224
H             0.1267581324           -2.2221008436           -1.3717739111
H            -3.5619066051            1.0731899889            1.3006467397
H            -4.2929426144            0.4663313990           -0.1936285622
H            -4.1647437898           -0.5916784589            1.2096011991
H             3.4641697579            2.1224261622            0.7401187913
H             4.5823099012            0.2235357758           -0.5197275100
H             2.3852548812            1.3050503265            0.4171210101
          20
 
C             2.4925556216           -0.5395006386           -0.6691972837
C             1.3385537188            0.0874431623           -0.1424941699
C            -0.0342642833           -0.3606797136           -0.2117926018
C            -1.1185129291            0.3489586747            0.3810766858
C            -2.3215068900           -0.2443937267            0.1961503990
S            -2.1548474950           -1.7122826816           -0.7250560978
C            -0.4550408288           -1.4949954344           -0.8418356490
C            -3.6629010536            0.2023417311            0.6567923730
N             1.6715930271            1.2185423000            0.4685408098
N             2.9892261945            1.3263156942            0.3452569251
C             3.5295265496            0.2908731585           -0.3325252127
H             2.5434296111           -1.4607576108           -1.2105770469
H            -0.9714550249            1.2664320616            0.9204251224
H             0.1267581324           -2.2221008436           -1.3717739111
H            -3.5619066051            1.0731899889            1.3006467397
H            -4.2929426144            0.4663313990           -0.1936285622
H            -4.1647437898           -0.5916784589            1.2096011991
H             3.4641697579            2.1224261622            0.7401187913
H             4.5823099012            0.2235357758           -0.5197275100
H             2.8607120746            1.1524167326            0.2640368554
          20
 
C             2.4925556216           -0.5395006386           -0.6691972837
C             1.3385537188            0.0874431623           -0.1424941699
C            -0.0342642833           -0.3606797136           -0.2117926018
C            -1.1185129291            0.3489586747            0.3810766858
C            -2.3215068900           -0.2443937267            0.1961503990
S            -2.1548474950           -1.7122826816           -0.7250560978
C            -0.4550408288           -1.4949954344           -0.8418356490
C            -3.6629010536            0.2023417311            0.6567923730
N             1.6715930271            1.2185423000            0.4685408098
N             2.9892261945            1.3263156942            0.3452569251
C             3.5295265496            0.2908731585           -0.3325252127
H             2.5434296111           -1.4607576108           -1.2105770469
H            -0.9714550249            1.2664320616            0.9204251224
H             0.1267581324           -2.2221008436           -1.3717739111
H            -3.5619066051            1.0731899889            1.3006467397
H            -4.2929426144            0.4663313990           -0.1936285622
H            -4.1647437898           -0.5916784589            1.2096011991
H             3.4641697579            2.1224261622            0.7401187913
H             4.5823099012            0.2235357758           -0.5197275100
H             1.8503618945           -0.1186542552           -0.6182937947
          20
 
C             2.4925556216           -0.5395006386           -0.6691972837
C             1.3385537188            0.0874431623           -0.1424941699
C            -0.0342642833           -0.3606797136           -0.2117926018
C            -1.1185129291            0.3489586747            0.3810766858
C            -2.3215068900           -0.2443937267            0.1961503990
S            -2.1548474950           -1.7122826816           -0.7250560978
C            -0.4550408288           -1.4949954344           -0.8418356490
C            -3.6629010536            0.2023417311            0.6567923730
N             1.6715930271            1.2185423000            0.4685408098
N             2.9892261945            1.3263156942            0.3452569251
C             3.5295265496            0.2908731585           -0.3325252127
H             2.5434296111           -1.4607576108           -1.2105770469
H            -0.9714550249            1.2664320616            0.9204251224
H             0.1267581324           -2.2221008436           -1.3717739111
H            -3.5619066051            1.0731899889            1.3006467397
H            -4.2929426144            0.4663313990           -0.1936285622
H            -4.1647437898           -0.5916784589            1.2096011991
H             3.4641697579            2.1224261622            0.7401187913
H             4.5823099012            0.2235357758           -0.5197275100
H             1.9080881975           -0.3617631307           -0.1994191311
          20
 
C             2.4925556216           -0.5395006386           -0.6691972837
C             1.3385537188            0.0874431623           -0.1424941699
C            -0.0342642833           -0.3606797136           -0.2117926018
C            -1.1185129291            0.3489586747            0.3810766858
C            -2.3215068900           -0.2443937267            0.1961503990
S            -2.1548474950           -1.7122826816           -0.7250560978
C            -0.4550408288           -1.4949954344           -0.8418356490
C            -3.6629010536            0.2023417311            0.6567923730
N             1.6715930271            1.2185423000            0.4685408098
N             2.9892261945            1.3263156942            0.3452569251
C             3.5295265496            0.2908731585           -0.3325252127
H             2.5434296111           -1.4607576108           -1.2105770469
H            -0.9714550249            1.2664320616            0.9204251224
H             0.1267581324           -2.2221008436           -1.3717739111
H            -3.5619066051            1.0731899889            1.3006467397
H            -4.2929426144            0.4663313990           -0.1936285622
H            -4.1647437898           -0.5916784589            1.2096011991
H             3.4641697579            2.1224261622            0.7401187913
H             4.5823099012            0.2235357758           -0.5197275100
H             3.1325067171            0.9660239592           -0.1934777504
          20
 
C             2.4925556216           -0.5395006386           -0.6691972837
C             1.3385537188            0.0874431623           -0.1424941699
C            -0.0342642833           -0.3606797136           -0.2117926018
C            -1.1185129291            0.3489586747            0.3810766858
C            -2.3215068900           -0.2443937267            0.1961503990
S            -2.1548474950           -1.7122826816           -0.7250560978
C            -0.4550408288           -1.4949954344           -0.8418356490
C            -3.6629010536            0.2023417311            0.6567923730
N             1.6715930271            1.2185423000            0.4685408098
N             2.9892261945            1.3263156942            0.3452569251
C             3.5295265496            0.2908731585           -0.3325252127
H             2.5434296111           -1.4607576108           -1.2105770469
H            -0.9714550249            1.2664320616            0.9204251224
H             0.1267581324           -2.2221008436           -1.3717739111
H            -3.5619066051            1.0731899889            1.3006467397
H            -4.2929426144            0.4663313990           -0.1936285622
H            -4.1647437898           -0.5916784589            1.2096011991
H             3.4641697579            2.1224261622            0.7401187913
H             4.5823099012            0.2235357758           -0.5197275100
H             3.1961986954            0.7013737856            0.2623644793
          20
 
C             2.4925556216           -0.5395006386           -0.6691972837
C             1.3385537188            0.0874431623           -0.1424941699
C            -0.0342642833           -0.3606797136           -0.2117926018
C            -1.1185129291            0.3489586747            0.3810766858
C            -2.3215068900           -0.2443937267            0.1961503990
S            -2.1548474950           -1.7122826816           -0.7250560978
C            -0.4550408288           -1.4949954344           -0.8418356490
C            -3.6629010536            0.2023417311            0.6567923730
N             1.6715930271            1.2185423000            0.4685408098
N             2.9892261945            1.3263156942            0.3452569251
C             3.5295265496            0.2908731585           -0.3325252127
H             2.5434296111           -1.4607576108           -1.2105770469
H            -0.9714550249            1.2664320616            0.9204251224
H             0.1267581324           -2.2221008436           -1.3717739111
H            -3.5619066051            1.0731899889            1.3006467397
H            -4.2929426144            0.4663313990           -0.1936285622
H            -4.1647437898           -0.5916784589            1.2096011991
H             3.4641697579            2.1224261622            0.7401187913
H             4.5823099012            0.2235357758           -0.5197275100
H            -0.5437462318            0.1090153292           -0.1695259035
          20
 
C             2.4925556216           -0.5395006386           -0.6691972837
C             1.3385537188            0.0874431623           -0.1424941699
C            -0.0342642833           -0.3606797136           -0.2117926018
C            -1.1185129291            0.3489586747            0.3810766858
C            -2.3215068900           -0.2443937267            0.1961503990
S            -2.1548474950           -1.7122826816           -0.7250560978
C            -0.4550408288           -1.4949954344           -0.8418356490
C            -3.6629010536            0.2023417311            0.6567923730
N             1.6715930271            1.2185423000            0.4685408098
N             2.9892261945            1.3263156942            0.3452569251
C             3.5295265496            0.2908731585           -0.3325252127
H             2.5434296111           -1.4607576108           -1.2105770469
H            -0.9714550249            1.2664320616            0.9204251224
H             0.1267581324           -2.2221008436           -1.3717739111
H            -3.5619066051            1.0731899889            1.3006467397
H            -4.2929426144            0.4663313990           -0.1936285622
H            -4.1647437898           -0.5916784589            1.2096011991
H             3.4641697579            2.1224261622            0.7401187913
H             4.5823099012            0.2235357758           -0.5197275100
H            -0.4748380094           -0.1706640716            0.2887894221
