          19
 
C            -3.5634189905           -0.0109523686           -0.0729209027
C            -2.1516628255           -0.4137185134           -0.3371473753
C            -1.0104221013            0.2332727078           -0.0165488308
C             0.1878197991           -0.4443947130           -0.4128837502
C             1.5130213109            0.0548974488           -0.1740101503
N             1.6534153507            1.2408100975            0.4622933781
N             2.9784473965            1.4049269973            0.5224234401
C             3.6415092211            0.3420620666           -0.0643067881
C             2.7494930231           -0.5981653737           -0.5502031824
C            -0.1004157160           -1.6207827645           -1.0413630842
S            -1.8070038366           -1.9175317409           -1.1579279948
H            -4.0403052042           -0.6996849620            0.6284095591
H            -3.5858354639            0.9912335866            0.3532566446
H            -4.1485549305           -0.0160741641           -0.9942480578
H            -0.9793914105            1.1808457453            0.4936036475
H             3.3527929258            2.2372002513            0.9636898701
H             4.7271104003            0.3739205955           -0.0700987105
H             0.5834020516           -2.3378628964           -1.4462087123
H            -2.1392186996           -1.6146464511           -2.4683607367
          19
 
C            -3.5634189905           -0.0109523686           -0.0729209027
C            -2.1516628255           -0.4137185134           -0.3371473753
C            -1.0104221013            0.2332727078           -0.0165488308
C             0.1878197991           -0.4443947130           -0.4128837502
C             1.5130213109            0.0548974488           -0.1740101503
N             1.6534153507            1.2408100975            0.4622933781
N             2.9784473965            1.4049269973            0.5224234401
C             3.6415092211            0.3420620666           -0.0643067881
C             2.7494930231           -0.5981653737           -0.5502031824
C            -0.1004157160           -1.6207827645           -1.0413630842
S            -1.8070038366           -1.9175317409           -1.1579279948
H            -4.0403052042           -0.6996849620            0.6284095591
H            -3.5858354639            0.9912335866            0.3532566446
H            -4.1485549305           -0.0160741641           -0.9942480578
H            -0.9793914105            1.1808457453            0.4936036475
H             3.3527929258            2.2372002513            0.9636898701
H             4.7271104003            0.3739205955           -0.0700987105
H             0.5834020516           -2.3378628964           -1.4462087123
H            -2.0793617145           -2.8529320781           -0.1750571921
          19
 
C            -3.5634189905           -0.0109523686           -0.0729209027
C            -2.1516628255           -0.4137185134           -0.3371473753
C            -1.0104221013            0.2332727078           -0.0165488308
C             0.1878197991           -0.4443947130           -0.4128837502
C             1.5130213109            0.0548974488           -0.1740101503
N             1.6534153507            1.2408100975            0.4622933781
N             2.9784473965            1.4049269973            0.5224234401
C             3.6415092211            0.3420620666           -0.0643067881
C             2.7494930231           -0.5981653737           -0.5502031824
C            -0.1004157160           -1.6207827645           -1.0413630842
S            -1.8070038366           -1.9175317409           -1.1579279948
H            -4.0403052042           -0.6996849620            0.6284095591
H            -3.5858354639            0.9912335866            0.3532566446
H            -4.1485549305           -0.0160741641           -0.9942480578
H            -0.9793914105            1.1808457453            0.4936036475
H             3.3527929258            2.2372002513            0.9636898701
H             4.7271104003            0.3739205955           -0.0700987105
H             0.5834020516           -2.3378628964           -1.4462087123
H             2.5323986776            1.2040376377            0.6716584149
          19
 
C            -3.5634189905           -0.0109523686           -0.0729209027
C            -2.1516628255           -0.4137185134           -0.3371473753
C            -1.0104221013            0.2332727078           -0.0165488308
C             0.1878197991           -0.4443947130           -0.4128837502
C             1.5130213109            0.0548974488           -0.1740101503
N             1.6534153507            1.2408100975            0.4622933781
N             2.9784473965            1.4049269973            0.5224234401
C             3.6415092211            0.3420620666           -0.0643067881
C             2.7494930231           -0.5981653737           -0.5502031824
C            -0.1004157160           -1.6207827645           -1.0413630842
S            -1.8070038366           -1.9175317409           -1.1579279948
H            -4.0403052042           -0.6996849620            0.6284095591
H            -3.5858354639            0.9912335866            0.3532566446
H            -4.1485549305           -0.0160741641           -0.9942480578
H            -0.9793914105            1.1808457453            0.4936036475
H             3.3527929258            2.2372002513            0.9636898701
H             4.7271104003            0.3739205955           -0.0700987105
H             0.5834020516           -2.3378628964           -1.4462087123
H             2.5274131734            1.4105614710            0.2868451962
          19
 
C            -3.5634189905           -0.0109523686           -0.0729209027
C            -2.1516628255           -0.4137185134           -0.3371473753
C            -1.0104221013            0.2332727078           -0.0165488308
C             0.1878197991           -0.4443947130           -0.4128837502
C             1.5130213109            0.0548974488           -0.1740101503
N             1.6534153507            1.2408100975            0.4622933781
N             2.9784473965            1.4049269973            0.5224234401
C             3.6415092211            0.3420620666           -0.0643067881
C             2.7494930231           -0.5981653737           -0.5502031824
C            -0.1004157160           -1.6207827645           -1.0413630842
S            -1.8070038366           -1.9175317409           -1.1579279948
H            -4.0403052042           -0.6996849620            0.6284095591
H            -3.5858354639            0.9912335866            0.3532566446
H            -4.1485549305           -0.0160741641           -0.9942480578
H            -0.9793914105            1.1808457453            0.4936036475
H             3.3527929258            2.2372002513            0.9636898701
H             4.7271104003            0.3739205955           -0.0700987105
H             0.5834020516           -2.3378628964           -1.4462087123
H            -1.5732449592            0.0190921330           -0.4354384261
          19
 
C            -3.5634189905           -0.0109523686           -0.0729209027
C            -2.1516628255           -0.4137185134           -0.3371473753
C            -1.0104221013            0.2332727078           -0.0165488308
C             0.1878197991           -0.4443947130           -0.4128837502
C             1.5130213109            0.0548974488           -0.1740101503
N             1.6534153507            1.2408100975            0.4622933781
N             2.9784473965            1.4049269973            0.5224234401
C             3.6415092211            0.3420620666           -0.0643067881
C             2.7494930231           -0.5981653737           -0.5502031824
C            -0.1004157160           -1.6207827645           -1.0413630842
S            -1.8070038366           -1.9175317409           -1.1579279948
H            -4.0403052042           -0.6996849620            0.6284095591
H            -3.5858354639            0.9912335866            0.3532566446
H            -4.1485549305           -0.0160741641           -0.9942480578
H            -0.9793914105            1.1808457453            0.4936036475
H             3.3527929258            2.2372002513            0.9636898701
H             4.7271104003            0.3739205955           -0.0700987105
H             0.5834020516           -2.3378628964           -1.4462087123
H            -1.5596346706           -0.2459024401            0.0556859760
          19
 
C            -3.5634189905           -0.0109523686           -0.0729209027
C            -2.1516628255           -0.4137185134           -0.3371473753
C            -1.0104221013            0.2332727078           -0.0165488308
C             0.1878197991           -0.4443947130           -0.4128837502
C             1.5130213109            0.0548974488           -0.1740101503
N             1.6534153507            1.2408100975            0.4622933781
N             2.9784473965            1.4049269973            0.5224234401
C             3.6415092211            0.3420620666           -0.0643067881
C             2.7494930231           -0.5981653737           -0.5502031824
C            -0.1004157160           -1.6207827645           -1.0413630842
S            -1.8070038366           -1.9175317409           -1.1579279948
H            -4.0403052042           -0.6996849620            0.6284095591
H            -3.5858354639            0.9912335866            0.3532566446
H            -4.1485549305           -0.0160741641           -0.9942480578
H            -0.9793914105            1.1808457453            0.4936036475
H             3.3527929258            2.2372002513            0.9636898701
H             4.7271104003            0.3739205955           -0.0700987105
H             0.5834020516           -2.3378628964           -1.4462087123
H            -0.0081144134           -0.8996651944           -0.9641848822
          19
 
C            -3.5634189905           -0.0109523686           -0.0729209027
C            -2.1516628255           -0.4137185134           -0.3371473753
C            -1.0104221013            0.2332727078           -0.0165488308
C             0.1878197991           -0.4443947130           -0.4128837502
C             1.5130213109            0.0548974488           -0.1740101503
N             1.6534153507            1.2408100975            0.4622933781
N             2.9784473965            1.4049269973            0.5224234401
C             3.6415092211            0.3420620666           -0.0643067881
C             2.7494930231           -0.5981653737           -0.5502031824
C            -0.1004157160           -1.6207827645           -1.0413630842
S            -1.8070038366           -1.9175317409           -1.1579279948
H            -4.0403052042           -0.6996849620            0.6284095591
H            -3.5858354639            0.9912335866            0.3532566446
H            -4.1485549305           -0.0160741641           -0.9942480578
H            -0.9793914105            1.1808457453            0.4936036475
H             3.3527929258            2.2372002513            0.9636898701
H             4.7271104003            0.3739205955           -0.0700987105
H             0.5834020516           -2.3378628964           -1.4462087123
H             0.0042844258           -1.1594310201           -0.4843486370
          19
 
C            -3.5634189905           -0.0109523686           -0.0729209027
C            -2.1516628255           -0.4137185134           -0.3371473753
C            -1.0104221013            0.2332727078           -0.0165488308
C             0.1878197991           -0.4443947130           -0.4128837502
C             1.5130213109            0.0548974488           -0.1740101503
N             1.6534153507            1.2408100975            0.4622933781
N             2.9784473965            1.4049269973            0.5224234401
C             3.6415092211            0.3420620666           -0.0643067881
C             2.7494930231           -0.5981653737           -0.5502031824
C            -0.1004157160           -1.6207827645           -1.0413630842
S            -1.8070038366           -1.9175317409           -1.1579279948
H            -4.0403052042           -0.6996849620            0.6284095591
H            -3.5858354639            0.9912335866            0.3532566446
H            -4.1485549305           -0.0160741641           -0.9942480578
H            -0.9793914105            1.1808457453            0.4936036475
H             3.3527929258            2.2372002513            0.9636898701
H             4.7271104003            0.3739205955           -0.0700987105
H             0.5834020516           -2.3378628964           -1.4462087123
H             1.5644243178            0.7209160415           -0.0820685262
          19
 
C            -3.5634189905           -0.0109523686           -0.0729209027
C            -2.1516628255           -0.4137185134           -0.3371473753
C            -1.0104221013            0.2332727078           -0.0165488308
C             0.1878197991           -0.4443947130           -0.4128837502
C             1.5130213109            0.0548974488           -0.1740101503
N             1.6534153507            1.2408100975            0.4622933781
N             2.9784473965            1.4049269973            0.5224234401
C             3.6415092211            0.3420620666           -0.0643067881
C             2.7494930231           -0.5981653737           -0.5502031824
C            -0.1004157160           -1.6207827645           -1.0413630842
S            -1.8070038366           -1.9175317409           -1.1579279948
H            -4.0403052042           -0.6996849620            0.6284095591
H            -3.5858354639            0.9912335866            0.3532566446
H            -4.1485549305           -0.0160741641           -0.9942480578
H            -0.9793914105            1.1808457453            0.4936036475
H             3.3527929258            2.2372002513            0.9636898701
H             4.7271104003            0.3739205955           -0.0700987105
H             0.5834020516           -2.3378628964           -1.4462087123
H             1.5731624898            0.4996483986            0.3304342470
          19
 
C            -3.5634189905           -0.0109523686           -0.0729209027
C            -2.1516628255           -0.4137185134           -0.3371473753
C            -1.0104221013            0.2332727078           -0.0165488308
C             0.1878197991           -0.4443947130           -0.4128837502
C             1.5130213109            0.0548974488           -0.1740101503
N             1.6534153507            1.2408100975            0.4622933781
N             2.9784473965            1.4049269973            0.5224234401
C             3.6415092211            0.3420620666           -0.0643067881
C             2.7494930231           -0.5981653737           -0.5502031824
C            -0.1004157160           -1.6207827645           -1.0413630842
S            -1.8070038366           -1.9175317409           -1.1579279948
H            -4.0403052042           -0.6996849620            0.6284095591
H            -3.5858354639            0.9912335866            0.3532566446
H            -4.1485549305           -0.0160741641           -0.9942480578
H            -0.9793914105            1.1808457453            0.4936036475
H             3.3527929258            2.2372002513            0.9636898701
H             4.7271104003            0.3739205955           -0.0700987105
H             0.5834020516           -2.3378628964           -1.4462087123
H             3.1497595015            0.1158723823           -0.4675928315
          19
 
C            -3.5634189905           -0.0109523686           -0.0729209027
C            -2.1516628255           -0.4137185134           -0.3371473753
C            -1.0104221013            0.2332727078           -0.0165488308
C             0.1878197991           -0.4443947130           -0.4128837502
C             1.5130213109            0.0548974488           -0.1740101503
N             1.6534153507            1.2408100975            0.4622933781
N             2.9784473965            1.4049269973            0.5224234401
C             3.6415092211            0.3420620666           -0.0643067881
C             2.7494930231           -0.5981653737           -0.5502031824
C            -0.1004157160           -1.6207827645           -1.0413630842
S            -1.8070038366           -1.9175317409           -1.1579279948
H            -4.0403052042           -0.6996849620            0.6284095591
H            -3.5858354639            0.9912335866            0.3532566446
H            -4.1485549305           -0.0160741641           -0.9942480578
H            -0.9793914105            1.1808457453            0.4936036475
H             3.3527929258            2.2372002513            0.9636898701
H             4.7271104003            0.3739205955           -0.0700987105
H             0.5834020516           -2.3378628964           -1.4462087123
H             3.1591488742           -0.1280699024           -0.0143799157
          19
 
C            -3.5634189905           -0.0109523686           -0.0729209027
C            -2.1516628255           -0.4137185134           -0.3371473753
C            -1.0104221013            0.2332727078           -0.0165488308
C             0.1878197991           -0.4443947130           -0.4128837502
C             1.5130213109            0.0548974488           -0.1740101503
N             1.6534153507            1.2408100975            0.4622933781
N             2.9784473965            1.4049269973            0.5224234401
C             3.6415092211            0.3420620666           -0.0643067881
C             2.7494930231           -0.5981653737           -0.5502031824
C            -0.1004157160           -1.6207827645           -1.0413630842
S            -1.8070038366           -1.9175317409           -1.1579279948
H            -4.0403052042           -0.6996849620            0.6284095591
H            -3.5858354639            0.9912335866            0.3532566446
H            -4.1485549305           -0.0160741641           -0.9942480578
H            -0.9793914105            1.1808457453            0.4936036475
H             3.3527929258            2.2372002513            0.9636898701
H             4.7271104003            0.3739205955           -0.0700987105
H             0.5834020516           -2.3378628964           -1.4462087123
H             1.0085698423            1.8795359649            0.8196699259
          19
 
C            -3.5634189905           -0.0109523686           -0.0729209027
C            -2.1516628255           -0.4137185134           -0.3371473753
C            -1.0104221013            0.2332727078           -0.0165488308
C             0.1878197991           -0.4443947130           -0.4128837502
C             1.5130213109            0.0548974488           -0.1740101503
N             1.6534153507            1.2408100975            0.4622933781
N             2.9784473965            1.4049269973            0.5224234401
C             3.6415092211            0.3420620666           -0.0643067881
C             2.7494930231           -0.5981653737           -0.5502031824
C            -0.1004157160           -1.6207827645           -1.0413630842
S            -1.8070038366           -1.9175317409           -1.1579279948
H            -4.0403052042           -0.6996849620            0.6284095591
H            -3.5858354639            0.9912335866            0.3532566446
H            -4.1485549305           -0.0160741641           -0.9942480578
H            -0.9793914105            1.1808457453            0.4936036475
H             3.3527929258            2.2372002513            0.9636898701
H             4.7271104003            0.3739205955           -0.0700987105
H             0.5834020516           -2.3378628964           -1.4462087123
H             3.1749527829            1.1432803443            0.1293411711
          19
 
C            -3.5634189905           -0.0109523686           -0.0729209027
C            -2.1516628255           -0.4137185134           -0.3371473753
C            -1.0104221013            0.2332727078           -0.0165488308
C             0.1878197991           -0.4443947130           -0.4128837502
C             1.5130213109            0.0548974488           -0.1740101503
N             1.6534153507            1.2408100975            0.4622933781
N             2.9784473965            1.4049269973            0.5224234401
C             3.6415092211            0.3420620666           -0.0643067881
C             2.7494930231           -0.5981653737           -0.5502031824
C            -0.1004157160           -1.6207827645           -1.0413630842
S            -1.8070038366           -1.9175317409           -1.1579279948
H            -4.0403052042           -0.6996849620            0.6284095591
H            -3.5858354639            0.9912335866            0.3532566446
H            -4.1485549305           -0.0160741641           -0.9942480578
H            -0.9793914105            1.1808457453            0.4936036475
H             3.3527929258            2.2372002513            0.9636898701
H             4.7271104003            0.3739205955           -0.0700987105
H             0.5834020516           -2.3378628964           -1.4462087123
H             3.1805998451            0.9379826794            0.5148008118
          19
 
C            -3.5634189905           -0.0109523686           -0.0729209027
C            -2.1516628255           -0.4137185134           -0.3371473753
C            -1.0104221013            0.2332727078           -0.0165488308
C             0.1878197991           -0.4443947130           -0.4128837502
C             1.5130213109            0.0548974488           -0.1740101503
N             1.6534153507            1.2408100975            0.4622933781
N             2.9784473965            1.4049269973            0.5224234401
C             3.6415092211            0.3420620666           -0.0643067881
C             2.7494930231           -0.5981653737           -0.5502031824
C            -0.1004157160           -1.6207827645           -1.0413630842
S            -1.8070038366           -1.9175317409           -1.1579279948
H            -4.0403052042           -0.6996849620            0.6284095591
H            -3.5858354639            0.9912335866            0.3532566446
H            -4.1485549305           -0.0160741641           -0.9942480578
H            -0.9793914105            1.1808457453            0.4936036475
H             3.3527929258            2.2372002513            0.9636898701
H             4.7271104003            0.3739205955           -0.0700987105
H             0.5834020516           -2.3378628964           -1.4462087123
H             2.0055060278           -0.1759861552           -0.5740552649
          19
 
C            -3.5634189905           -0.0109523686           -0.0729209027
C            -2.1516628255           -0.4137185134           -0.3371473753
C            -1.0104221013            0.2332727078           -0.0165488308
C             0.1878197991           -0.4443947130           -0.4128837502
C             1.5130213109            0.0548974488           -0.1740101503
N             1.6534153507            1.2408100975            0.4622933781
N             2.9784473965            1.4049269973            0.5224234401
C             3.6415092211            0.3420620666           -0.0643067881
C             2.7494930231           -0.5981653737           -0.5502031824
C            -0.1004157160           -1.6207827645           -1.0413630842
S            -1.8070038366           -1.9175317409           -1.1579279948
H            -4.0403052042           -0.6996849620            0.6284095591
H            -3.5858354639            0.9912335866            0.3532566446
H            -4.1485549305           -0.0160741641           -0.9942480578
H            -0.9793914105            1.1808457453            0.4936036475
H             3.3527929258            2.2372002513            0.9636898701
H             4.7271104003            0.3739205955           -0.0700987105
H             0.5834020516           -2.3378628964           -1.4462087123
H             2.0124978683           -0.3979296668           -0.1618824071
