energy: -29.923487996444 gnorm: 0.000642957120 xtb: 6.4.1 (afa7bdf)
 OpenBabel11022218133D

 18 18  0  0  1  0  0  0  0  0999 V2000
   -3.6994   -0.5547    0.6994 C   0  0  0  0  0  0  0  0  0  0  0  0
   -2.3947   -0.1678    0.1941 C   0  0  0  0  0  0  0  0  0  0  0  0
   -1.3116    0.1507   -0.2232 C   0  0  0  0  0  0  0  0  0  0  0  0
   -0.0600    0.5448   -0.7431 C   0  0  2  0  0  3  0  0  0  0  0  0
    1.1136    0.1018   -0.0441 C   0  0  0  0  0  0  0  0  0  0  0  0
    1.0484   -0.6347    1.0684 N   0  0  0  0  0  0  0  0  0  0  0  0
    2.3233   -0.8601    1.4402 N   0  0  0  0  0  0  0  0  0  0  0  0
    3.2095   -0.2866    0.5920 C   0  0  0  0  0  0  0  0  0  0  0  0
    2.4808    0.3423   -0.3762 C   0  0  0  0  0  0  0  0  0  0  0  0
    0.0182    1.3227   -1.8744 C   0  0  0  0  0  0  0  0  0  0  0  0
   -1.2551    1.9165   -2.7967 S   0  0  0  0  0  0  0  0  0  0  0  0
   -3.9639   -1.5589    0.3562 H   0  0  0  0  0  0  0  0  0  0  0  0
   -4.4602    0.1436    0.3441 H   0  0  0  0  0  0  0  0  0  0  0  0
   -3.7032   -0.5499    1.7927 H   0  0  0  0  0  0  0  0  0  0  0  0
    2.5126   -1.4050    2.2642 H   0  0  0  0  0  0  0  0  0  0  0  0
    4.2696   -0.3729    0.7465 H   0  0  0  0  0  0  0  0  0  0  0  0
    2.8625    0.8973   -1.2093 H   0  0  0  0  0  0  0  0  0  0  0  0
    1.0095    1.5998   -2.2307 H   0  0  0  0  0  0  0  0  0  0  0  0
  1 14  1  0  0  0  0
  2  1  1  0  0  0  0
  3  2  3  0  0  0  0
  4  3  1  1  0  0  0
  4  5  1  0  0  0  0
  5  6  2  0  0  0  0
  6  7  1  0  0  0  0
  7 15  1  0  0  0  0
  8 16  1  0  0  0  0
  8  7  1  0  0  0  0
  9  5  1  0  0  0  0
  9  8  2  0  0  0  0
 10  4  1  0  0  0  0
 11 10  2  0  0  0  0
 12  1  1  0  0  0  0
 13  1  1  0  0  0  0
 17  9  1  0  0  0  0
 18 10  1  0  0  0  0
M  END
$$$$
