energy: -4.681119609257 gnorm: 0.000687979388 xtb: 6.4.1 (afa7bdf)
 OpenBabel11022218133D

 18 19  0  0  0  0  0  0  0  0999 V2000
   -3.8169   -0.1731    0.1445 C   0  0  0  0  0  0  0  0  0  0  0  0
   -2.4409    0.1664   -0.2909 C   0  0  0  0  0  0  0  0  0  0  0  0
   -1.3009   -0.1930    0.2802 C   0  0  0  0  0  3  0  0  0  0  0  0
   -0.0782    0.2215   -0.2822 C   0  0  0  0  0  0  0  0  0  0  0  0
    1.2702   -0.0995    0.2482 C   0  0  0  0  0  0  0  0  0  0  0  0
    1.5080   -0.8335    1.3366 N   0  0  0  0  0  0  0  0  0  0  0  0
    2.8323   -0.8721    1.4544 N   0  0  0  0  0  0  0  0  0  0  0  0
    3.4880   -0.1735    0.4595 C   0  0  0  0  0  0  0  0  0  0  0  0
    2.4975    0.3320   -0.3283 C   0  0  0  0  0  0  0  0  0  0  0  0
   -0.3119    0.9763   -1.4035 C   0  0  0  0  0  0  0  0  0  0  0  0
   -2.0252    1.1491   -1.7245 S   0  0  0  0  0  0  0  0  0  0  0  0
   -4.0974   -1.1758   -0.1924 H   0  0  0  0  0  0  0  0  0  0  0  0
   -4.5430    0.5355   -0.2664 H   0  0  0  0  0  0  0  0  0  0  0  0
   -3.9031   -0.1462    1.2348 H   0  0  0  0  0  0  0  0  0  0  0  0
    3.2939   -1.3800    2.2216 H   0  0  0  0  0  0  0  0  0  0  0  0
    4.5560   -0.0586    0.3405 H   0  0  0  0  0  0  0  0  0  0  0  0
    2.6191    0.9392   -1.2137 H   0  0  0  0  0  0  0  0  0  0  0  0
    0.4526    1.4141   -2.0183 H   0  0  0  0  0  0  0  0  0  0  0  0
  1 14  1  0  0  0  0
  2  1  1  0  0  0  0
  2  3  2  0  0  0  0
  4  5  1  0  0  0  0
  4  3  1  0  0  0  0
  5  6  2  0  0  0  0
  6  7  1  0  0  0  0
  7 15  1  0  0  0  0
  8  7  1  0  0  0  0
  9  5  1  0  0  0  0
  9  8  2  0  0  0  0
 10  4  2  0  0  0  0
 11 10  1  0  0  0  0
 11  2  1  0  0  0  0
 12  1  1  0  0  0  0
 13  1  1  0  0  0  0
 16  8  1  0  0  0  0
 17  9  1  0  0  0  0
 18 10  1  0  0  0  0
M  END
$$$$
