          19
 
C            -3.6993534858           -0.5546961220            0.6993505368
C            -2.3946634782           -0.1677785477            0.1940819235
C            -1.3116444768            0.1506875424           -0.2232261856
C            -0.0600361935            0.5447619468           -0.7430873239
C             1.1135761362            0.1018268928           -0.0441301178
N             1.0483680575           -0.6347142742            1.0684003177
N             2.3233490975           -0.8601154832            1.4401714190
C             3.2095260066           -0.2866052102            0.5919821341
C             2.4808185656            0.3422555240           -0.3761635930
C             0.0182498221            1.3227362772           -1.8743538838
S            -1.2551436230            1.9164695666           -2.7967361874
H            -3.9638785227           -1.5589048514            0.3562453350
H            -4.4601698083            0.1435644107            0.3440871769
H            -3.7031553865           -0.5499411577            1.7926745485
H             2.5126043086           -1.4050172764            2.2641863191
H             4.2695572465           -0.3728671565            0.7465416979
H             2.8625446785            0.8972520839           -1.2093431871
H             1.0094520556            1.5997998350           -2.2306809300
H             2.7890820014           -0.1792987392           -0.0630736147
          19
 
C            -3.6993534858           -0.5546961220            0.6993505368
C            -2.3946634782           -0.1677785477            0.1940819235
C            -1.3116444768            0.1506875424           -0.2232261856
C            -0.0600361935            0.5447619468           -0.7430873239
C             1.1135761362            0.1018268928           -0.0441301178
N             1.0483680575           -0.6347142742            1.0684003177
N             2.3233490975           -0.8601154832            1.4401714190
C             3.2095260066           -0.2866052102            0.5919821341
C             2.4808185656            0.3422555240           -0.3761635930
C             0.0182498221            1.3227362772           -1.8743538838
S            -1.2551436230            1.9164695666           -2.7967361874
H            -3.9638785227           -1.5589048514            0.3562453350
H            -4.4601698083            0.1435644107            0.3440871769
H            -3.7031553865           -0.5499411577            1.7926745485
H             2.5126043086           -1.4050172764            2.2641863191
H             4.2695572465           -0.3728671565            0.7465416979
H             2.8625446785            0.8972520839           -1.2093431871
H             1.0094520556            1.5997998350           -2.2306809300
H             2.7708174037            0.2696602624            0.2320748525
          19
 
C            -3.6993534858           -0.5546961220            0.6993505368
C            -2.3946634782           -0.1677785477            0.1940819235
C            -1.3116444768            0.1506875424           -0.2232261856
C            -0.0600361935            0.5447619468           -0.7430873239
C             1.1135761362            0.1018268928           -0.0441301178
N             1.0483680575           -0.6347142742            1.0684003177
N             2.3233490975           -0.8601154832            1.4401714190
C             3.2095260066           -0.2866052102            0.5919821341
C             2.4808185656            0.3422555240           -0.3761635930
C             0.0182498221            1.3227362772           -1.8743538838
S            -1.2551436230            1.9164695666           -2.7967361874
H            -3.9638785227           -1.5589048514            0.3562453350
H            -4.4601698083            0.1435644107            0.3440871769
H            -3.7031553865           -0.5499411577            1.7926745485
H             2.5126043086           -1.4050172764            2.2641863191
H             4.2695572465           -0.3728671565            0.7465416979
H             2.8625446785            0.8972520839           -1.2093431871
H             1.0094520556            1.5997998350           -2.2306809300
H             1.1179391399           -0.5070970660            0.4378136321
          19
 
C            -3.6993534858           -0.5546961220            0.6993505368
C            -2.3946634782           -0.1677785477            0.1940819235
C            -1.3116444768            0.1506875424           -0.2232261856
C            -0.0600361935            0.5447619468           -0.7430873239
C             1.1135761362            0.1018268928           -0.0441301178
N             1.0483680575           -0.6347142742            1.0684003177
N             2.3233490975           -0.8601154832            1.4401714190
C             3.2095260066           -0.2866052102            0.5919821341
C             2.4808185656            0.3422555240           -0.3761635930
C             0.0182498221            1.3227362772           -1.8743538838
S            -1.2551436230            1.9164695666           -2.7967361874
H            -3.9638785227           -1.5589048514            0.3562453350
H            -4.4601698083            0.1435644107            0.3440871769
H            -3.7031553865           -0.5499411577            1.7926745485
H             2.5126043086           -1.4050172764            2.2641863191
H             4.2695572465           -0.3728671565            0.7465416979
H             2.8625446785            0.8972520839           -1.2093431871
H             1.0094520556            1.5997998350           -2.2306809300
H             2.3416502892           -0.6354167864            1.3106714541
          19
 
C            -3.6993534858           -0.5546961220            0.6993505368
C            -2.3946634782           -0.1677785477            0.1940819235
C            -1.3116444768            0.1506875424           -0.2232261856
C            -0.0600361935            0.5447619468           -0.7430873239
C             1.1135761362            0.1018268928           -0.0441301178
N             1.0483680575           -0.6347142742            1.0684003177
N             2.3233490975           -0.8601154832            1.4401714190
C             3.2095260066           -0.2866052102            0.5919821341
C             2.4808185656            0.3422555240           -0.3761635930
C             0.0182498221            1.3227362772           -1.8743538838
S            -1.2551436230            1.9164695666           -2.7967361874
H            -3.9638785227           -1.5589048514            0.3562453350
H            -4.4601698083            0.1435644107            0.3440871769
H            -3.7031553865           -0.5499411577            1.7926745485
H             2.5126043086           -1.4050172764            2.2641863191
H             4.2695572465           -0.3728671565            0.7465416979
H             2.8625446785            0.8972520839           -1.2093431871
H             1.0094520556            1.5997998350           -2.2306809300
H             1.1154364630           -0.0989439077            0.7050143039
          19
 
C            -3.6993534858           -0.5546961220            0.6993505368
C            -2.3946634782           -0.1677785477            0.1940819235
C            -1.3116444768            0.1506875424           -0.2232261856
C            -0.0600361935            0.5447619468           -0.7430873239
C             1.1135761362            0.1018268928           -0.0441301178
N             1.0483680575           -0.6347142742            1.0684003177
N             2.3233490975           -0.8601154832            1.4401714190
C             3.2095260066           -0.2866052102            0.5919821341
C             2.4808185656            0.3422555240           -0.3761635930
C             0.0182498221            1.3227362772           -1.8743538838
S            -1.2551436230            1.9164695666           -2.7967361874
H            -3.9638785227           -1.5589048514            0.3562453350
H            -4.4601698083            0.1435644107            0.3440871769
H            -3.7031553865           -0.5499411577            1.7926745485
H             2.5126043086           -1.4050172764            2.2641863191
H             4.2695572465           -0.3728671565            0.7465416979
H             2.8625446785            0.8972520839           -1.2093431871
H             1.0094520556            1.5997998350           -2.2306809300
H            -0.0341281209            0.6137272880           -1.2951719291
          19
 
C            -3.6993534858           -0.5546961220            0.6993505368
C            -2.3946634782           -0.1677785477            0.1940819235
C            -1.3116444768            0.1506875424           -0.2232261856
C            -0.0600361935            0.5447619468           -0.7430873239
C             1.1135761362            0.1018268928           -0.0441301178
N             1.0483680575           -0.6347142742            1.0684003177
N             2.3233490975           -0.8601154832            1.4401714190
C             3.2095260066           -0.2866052102            0.5919821341
C             2.4808185656            0.3422555240           -0.3761635930
C             0.0182498221            1.3227362772           -1.8743538838
S            -1.2551436230            1.9164695666           -2.7967361874
H            -3.9638785227           -1.5589048514            0.3562453350
H            -4.4601698083            0.1435644107            0.3440871769
H            -3.7031553865           -0.5499411577            1.7926745485
H             2.5126043086           -1.4050172764            2.2641863191
H             4.2695572465           -0.3728671565            0.7465416979
H             2.8625446785            0.8972520839           -1.2093431871
H             1.0094520556            1.5997998350           -2.2306809300
H            -0.0461641153            1.0334071281           -1.0024015117
          19
 
C            -3.6993534858           -0.5546961220            0.6993505368
C            -2.3946634782           -0.1677785477            0.1940819235
C            -1.3116444768            0.1506875424           -0.2232261856
C            -0.0600361935            0.5447619468           -0.7430873239
C             1.1135761362            0.1018268928           -0.0441301178
N             1.0483680575           -0.6347142742            1.0684003177
N             2.3233490975           -0.8601154832            1.4401714190
C             3.2095260066           -0.2866052102            0.5919821341
C             2.4808185656            0.3422555240           -0.3761635930
C             0.0182498221            1.3227362772           -1.8743538838
S            -1.2551436230            1.9164695666           -2.7967361874
H            -3.9638785227           -1.5589048514            0.3562453350
H            -4.4601698083            0.1435644107            0.3440871769
H            -3.7031553865           -0.5499411577            1.7926745485
H             2.5126043086           -1.4050172764            2.2641863191
H             4.2695572465           -0.3728671565            0.7465416979
H             2.8625446785            0.8972520839           -1.2093431871
H             1.0094520556            1.5997998350           -2.2306809300
H            -1.7251005420           -0.1422534309            0.2415699053
          19
 
C            -3.6993534858           -0.5546961220            0.6993505368
C            -2.3946634782           -0.1677785477            0.1940819235
C            -1.3116444768            0.1506875424           -0.2232261856
C            -0.0600361935            0.5447619468           -0.7430873239
C             1.1135761362            0.1018268928           -0.0441301178
N             1.0483680575           -0.6347142742            1.0684003177
N             2.3233490975           -0.8601154832            1.4401714190
C             3.2095260066           -0.2866052102            0.5919821341
C             2.4808185656            0.3422555240           -0.3761635930
C             0.0182498221            1.3227362772           -1.8743538838
S            -1.2551436230            1.9164695666           -2.7967361874
H            -3.9638785227           -1.5589048514            0.3562453350
H            -4.4601698083            0.1435644107            0.3440871769
H            -3.7031553865           -0.5499411577            1.7926745485
H             2.5126043086           -1.4050172764            2.2641863191
H             4.2695572465           -0.3728671565            0.7465416979
H             2.8625446785            0.8972520839           -1.2093431871
H             1.0094520556            1.5997998350           -2.2306809300
H            -1.9066035745           -0.1709441570           -0.2810667513
          19
 
C            -3.6993534858           -0.5546961220            0.6993505368
C            -2.3946634782           -0.1677785477            0.1940819235
C            -1.3116444768            0.1506875424           -0.2232261856
C            -0.0600361935            0.5447619468           -0.7430873239
C             1.1135761362            0.1018268928           -0.0441301178
N             1.0483680575           -0.6347142742            1.0684003177
N             2.3233490975           -0.8601154832            1.4401714190
C             3.2095260066           -0.2866052102            0.5919821341
C             2.4808185656            0.3422555240           -0.3761635930
C             0.0182498221            1.3227362772           -1.8743538838
S            -1.2551436230            1.9164695666           -2.7967361874
H            -3.9638785227           -1.5589048514            0.3562453350
H            -4.4601698083            0.1435644107            0.3440871769
H            -3.7031553865           -0.5499411577            1.7926745485
H             2.5126043086           -1.4050172764            2.2641863191
H             4.2695572465           -0.3728671565            0.7465416979
H             2.8625446785            0.8972520839           -1.2093431871
H             1.0094520556            1.5997998350           -2.2306809300
H            -1.9454413422            0.2955940922           -0.0168167945
          19
 
C            -3.6993534858           -0.5546961220            0.6993505368
C            -2.3946634782           -0.1677785477            0.1940819235
C            -1.3116444768            0.1506875424           -0.2232261856
C            -0.0600361935            0.5447619468           -0.7430873239
C             1.1135761362            0.1018268928           -0.0441301178
N             1.0483680575           -0.6347142742            1.0684003177
N             2.3233490975           -0.8601154832            1.4401714190
C             3.2095260066           -0.2866052102            0.5919821341
C             2.4808185656            0.3422555240           -0.3761635930
C             0.0182498221            1.3227362772           -1.8743538838
S            -1.2551436230            1.9164695666           -2.7967361874
H            -3.9638785227           -1.5589048514            0.3562453350
H            -4.4601698083            0.1435644107            0.3440871769
H            -3.7031553865           -0.5499411577            1.7926745485
H             2.5126043086           -1.4050172764            2.2641863191
H             4.2695572465           -0.3728671565            0.7465416979
H             2.8625446785            0.8972520839           -1.2093431871
H             1.0094520556            1.5997998350           -2.2306809300
H            -0.6786958052            2.7926393182           -4.0420232823
          19
 
C            -3.6993534858           -0.5546961220            0.6993505368
C            -2.3946634782           -0.1677785477            0.1940819235
C            -1.3116444768            0.1506875424           -0.2232261856
C            -0.0600361935            0.5447619468           -0.7430873239
C             1.1135761362            0.1018268928           -0.0441301178
N             1.0483680575           -0.6347142742            1.0684003177
N             2.3233490975           -0.8601154832            1.4401714190
C             3.2095260066           -0.2866052102            0.5919821341
C             2.4808185656            0.3422555240           -0.3761635930
C             0.0182498221            1.3227362772           -1.8743538838
S            -1.2551436230            1.9164695666           -2.7967361874
H            -3.9638785227           -1.5589048514            0.3562453350
H            -4.4601698083            0.1435644107            0.3440871769
H            -3.7031553865           -0.5499411577            1.7926745485
H             2.5126043086           -1.4050172764            2.2641863191
H             4.2695572465           -0.3728671565            0.7465416979
H             2.8625446785            0.8972520839           -1.2093431871
H             1.0094520556            1.5997998350           -2.2306809300
H             0.2970734419           -0.9906980653            1.5901175297
          19
 
C            -3.6993534858           -0.5546961220            0.6993505368
C            -2.3946634782           -0.1677785477            0.1940819235
C            -1.3116444768            0.1506875424           -0.2232261856
C            -0.0600361935            0.5447619468           -0.7430873239
C             1.1135761362            0.1018268928           -0.0441301178
N             1.0483680575           -0.6347142742            1.0684003177
N             2.3233490975           -0.8601154832            1.4401714190
C             3.2095260066           -0.2866052102            0.5919821341
C             2.4808185656            0.3422555240           -0.3761635930
C             0.0182498221            1.3227362772           -1.8743538838
S            -1.2551436230            1.9164695666           -2.7967361874
H            -3.9638785227           -1.5589048514            0.3562453350
H            -4.4601698083            0.1435644107            0.3440871769
H            -3.7031553865           -0.5499411577            1.7926745485
H             2.5126043086           -1.4050172764            2.2641863191
H             4.2695572465           -0.3728671565            0.7465416979
H             2.8625446785            0.8972520839           -1.2093431871
H             1.0094520556            1.5997998350           -2.2306809300
H            -0.7801643316            1.9149530956           -2.2539229661
          19
 
C            -3.6993534858           -0.5546961220            0.6993505368
C            -2.3946634782           -0.1677785477            0.1940819235
C            -1.3116444768            0.1506875424           -0.2232261856
C            -0.0600361935            0.5447619468           -0.7430873239
C             1.1135761362            0.1018268928           -0.0441301178
N             1.0483680575           -0.6347142742            1.0684003177
N             2.3233490975           -0.8601154832            1.4401714190
C             3.2095260066           -0.2866052102            0.5919821341
C             2.4808185656            0.3422555240           -0.3761635930
C             0.0182498221            1.3227362772           -1.8743538838
S            -1.2551436230            1.9164695666           -2.7967361874
H            -3.9638785227           -1.5589048514            0.3562453350
H            -4.4601698083            0.1435644107            0.3440871769
H            -3.7031553865           -0.5499411577            1.7926745485
H             2.5126043086           -1.4050172764            2.2641863191
H             4.2695572465           -0.3728671565            0.7465416979
H             2.8625446785            0.8972520839           -1.2093431871
H             1.0094520556            1.5997998350           -2.2306809300
H            -0.7662063307            1.4314452662           -2.5881436488
          19
 
C            -3.6993534858           -0.5546961220            0.6993505368
C            -2.3946634782           -0.1677785477            0.1940819235
C            -1.3116444768            0.1506875424           -0.2232261856
C            -0.0600361935            0.5447619468           -0.7430873239
C             1.1135761362            0.1018268928           -0.0441301178
N             1.0483680575           -0.6347142742            1.0684003177
N             2.3233490975           -0.8601154832            1.4401714190
C             3.2095260066           -0.2866052102            0.5919821341
C             2.4808185656            0.3422555240           -0.3761635930
C             0.0182498221            1.3227362772           -1.8743538838
S            -1.2551436230            1.9164695666           -2.7967361874
H            -3.9638785227           -1.5589048514            0.3562453350
H            -4.4601698083            0.1435644107            0.3440871769
H            -3.7031553865           -0.5499411577            1.7926745485
H             2.5126043086           -1.4050172764            2.2641863191
H             4.2695572465           -0.3728671565            0.7465416979
H             2.8625446785            0.8972520839           -1.2093431871
H             1.0094520556            1.5997998350           -2.2306809300
H             1.7494881513           -0.7052687696            1.3580186318
          19
 
C            -3.6993534858           -0.5546961220            0.6993505368
C            -2.3946634782           -0.1677785477            0.1940819235
C            -1.3116444768            0.1506875424           -0.2232261856
C            -0.0600361935            0.5447619468           -0.7430873239
C             1.1135761362            0.1018268928           -0.0441301178
N             1.0483680575           -0.6347142742            1.0684003177
N             2.3233490975           -0.8601154832            1.4401714190
C             3.2095260066           -0.2866052102            0.5919821341
C             2.4808185656            0.3422555240           -0.3761635930
C             0.0182498221            1.3227362772           -1.8743538838
S            -1.2551436230            1.9164695666           -2.7967361874
H            -3.9638785227           -1.5589048514            0.3562453350
H            -4.4601698083            0.1435644107            0.3440871769
H            -3.7031553865           -0.5499411577            1.7926745485
H             2.5126043086           -1.4050172764            2.2641863191
H             4.2695572465           -0.3728671565            0.7465416979
H             2.8625446785            0.8972520839           -1.2093431871
H             1.0094520556            1.5997998350           -2.2306809300
H             2.1922562033           -0.8530508681            1.2157623211
          19
 
C            -3.6993534858           -0.5546961220            0.6993505368
C            -2.3946634782           -0.1677785477            0.1940819235
C            -1.3116444768            0.1506875424           -0.2232261856
C            -0.0600361935            0.5447619468           -0.7430873239
C             1.1135761362            0.1018268928           -0.0441301178
N             1.0483680575           -0.6347142742            1.0684003177
N             2.3233490975           -0.8601154832            1.4401714190
C             3.2095260066           -0.2866052102            0.5919821341
C             2.4808185656            0.3422555240           -0.3761635930
C             0.0182498221            1.3227362772           -1.8743538838
S            -1.2551436230            1.9164695666           -2.7967361874
H            -3.9638785227           -1.5589048514            0.3562453350
H            -4.4601698083            0.1435644107            0.3440871769
H            -3.7031553865           -0.5499411577            1.7926745485
H             2.5126043086           -1.4050172764            2.2641863191
H             4.2695572465           -0.3728671565            0.7465416979
H             2.8625446785            0.8972520839           -1.2093431871
H             1.0094520556            1.5997998350           -2.2306809300
H             1.8915610330            0.0074455978           -0.3750540274
          19
 
C            -3.6993534858           -0.5546961220            0.6993505368
C            -2.3946634782           -0.1677785477            0.1940819235
C            -1.3116444768            0.1506875424           -0.2232261856
C            -0.0600361935            0.5447619468           -0.7430873239
C             1.1135761362            0.1018268928           -0.0441301178
N             1.0483680575           -0.6347142742            1.0684003177
N             2.3233490975           -0.8601154832            1.4401714190
C             3.2095260066           -0.2866052102            0.5919821341
C             2.4808185656            0.3422555240           -0.3761635930
C             0.0182498221            1.3227362772           -1.8743538838
S            -1.2551436230            1.9164695666           -2.7967361874
H            -3.9638785227           -1.5589048514            0.3562453350
H            -4.4601698083            0.1435644107            0.3440871769
H            -3.7031553865           -0.5499411577            1.7926745485
H             2.5126043086           -1.4050172764            2.2641863191
H             4.2695572465           -0.3728671565            0.7465416979
H             2.8625446785            0.8972520839           -1.2093431871
H             1.0094520556            1.5997998350           -2.2306809300
H             1.8755933657            0.4595318252           -0.0845828721
          19
 
C            -3.6993534858           -0.5546961220            0.6993505368
C            -2.3946634782           -0.1677785477            0.1940819235
C            -1.3116444768            0.1506875424           -0.2232261856
C            -0.0600361935            0.5447619468           -0.7430873239
C             1.1135761362            0.1018268928           -0.0441301178
N             1.0483680575           -0.6347142742            1.0684003177
N             2.3233490975           -0.8601154832            1.4401714190
C             3.2095260066           -0.2866052102            0.5919821341
C             2.4808185656            0.3422555240           -0.3761635930
C             0.0182498221            1.3227362772           -1.8743538838
S            -1.2551436230            1.9164695666           -2.7967361874
H            -3.9638785227           -1.5589048514            0.3562453350
H            -4.4601698083            0.1435644107            0.3440871769
H            -3.7031553865           -0.5499411577            1.7926745485
H             2.5126043086           -1.4050172764            2.2641863191
H             4.2695572465           -0.3728671565            0.7465416979
H             2.8625446785            0.8972520839           -1.2093431871
H             1.0094520556            1.5997998350           -2.2306809300
H             2.6856581469           -0.8098782007            0.8803875465
          19
 
C            -3.6993534858           -0.5546961220            0.6993505368
C            -2.3946634782           -0.1677785477            0.1940819235
C            -1.3116444768            0.1506875424           -0.2232261856
C            -0.0600361935            0.5447619468           -0.7430873239
C             1.1135761362            0.1018268928           -0.0441301178
N             1.0483680575           -0.6347142742            1.0684003177
N             2.3233490975           -0.8601154832            1.4401714190
C             3.2095260066           -0.2866052102            0.5919821341
C             2.4808185656            0.3422555240           -0.3761635930
C             0.0182498221            1.3227362772           -1.8743538838
S            -1.2551436230            1.9164695666           -2.7967361874
H            -3.9638785227           -1.5589048514            0.3562453350
H            -4.4601698083            0.1435644107            0.3440871769
H            -3.7031553865           -0.5499411577            1.7926745485
H             2.5126043086           -1.4050172764            2.2641863191
H             4.2695572465           -0.3728671565            0.7465416979
H             2.8625446785            0.8972520839           -1.2093431871
H             1.0094520556            1.5997998350           -2.2306809300
H             2.6906949705           -0.3617178501            1.1772668924
