          19
 
C             3.5627285062           -0.3385557908           -0.1755513542
C             2.1957024405            0.1998961704            0.0929532152
C             0.9959597633           -0.3540165977           -0.1853593064
C            -0.1277051684            0.4334323598            0.2184973531
C            -1.4786323411            0.0014233930            0.0019812860
N            -2.5171393593            0.7694499967            0.3981884627
N            -3.5871054814            0.0536107832            0.0359199211
C            -3.2175802222           -1.1310328940           -0.5709876251
C            -1.8391215362           -1.2490854334           -0.6361655803
C             0.2731725352            1.5967643748            0.8096664467
S             2.0020887320            1.7478828379            0.8826123479
H             4.3176670334            0.4074742731            0.0650885307
H             3.7525413904           -1.2294148598            0.4270463091
H             3.6654143458           -0.6159077377           -1.2257141170
H             0.8562427417           -1.3046699032           -0.6703225505
H            -4.5126577674            0.4200193434            0.2263120822
H            -4.0111604359           -1.7921475632           -0.9062248639
H            -0.3304151765            2.3848752474            1.2120604428
H             2.3288012020            2.6338272075           -0.1309674867
          19
 
C             3.5627285062           -0.3385557908           -0.1755513542
C             2.1957024405            0.1998961704            0.0929532152
C             0.9959597633           -0.3540165977           -0.1853593064
C            -0.1277051684            0.4334323598            0.2184973531
C            -1.4786323411            0.0014233930            0.0019812860
N            -2.5171393593            0.7694499967            0.3981884627
N            -3.5871054814            0.0536107832            0.0359199211
C            -3.2175802222           -1.1310328940           -0.5709876251
C            -1.8391215362           -1.2490854334           -0.6361655803
C             0.2731725352            1.5967643748            0.8096664467
S             2.0020887320            1.7478828379            0.8826123479
H             4.3176670334            0.4074742731            0.0650885307
H             3.7525413904           -1.2294148598            0.4270463091
H             3.6654143458           -0.6159077377           -1.2257141170
H             0.8562427417           -1.3046699032           -0.6703225505
H            -4.5126577674            0.4200193434            0.2263120822
H            -4.0111604359           -1.7921475632           -0.9062248639
H            -0.3304151765            2.3848752474            1.2120604428
H             2.3332702956            1.4498317038            2.1923380952
          19
 
C             3.5627285062           -0.3385557908           -0.1755513542
C             2.1957024405            0.1998961704            0.0929532152
C             0.9959597633           -0.3540165977           -0.1853593064
C            -0.1277051684            0.4334323598            0.2184973531
C            -1.4786323411            0.0014233930            0.0019812860
N            -2.5171393593            0.7694499967            0.3981884627
N            -3.5871054814            0.0536107832            0.0359199211
C            -3.2175802222           -1.1310328940           -0.5709876251
C            -1.8391215362           -1.2490854334           -0.6361655803
C             0.2731725352            1.5967643748            0.8096664467
S             2.0020887320            1.7478828379            0.8826123479
H             4.3176670334            0.4074742731            0.0650885307
H             3.7525413904           -1.2294148598            0.4270463091
H             3.6654143458           -0.6159077377           -1.2257141170
H             0.8562427417           -1.3046699032           -0.6703225505
H            -4.5126577674            0.4200193434            0.2263120822
H            -4.0111604359           -1.7921475632           -0.9062248639
H            -0.3304151765            2.3848752474            1.2120604428
H            -3.1888495658            0.3700290502           -0.0490105323
          19
 
C             3.5627285062           -0.3385557908           -0.1755513542
C             2.1957024405            0.1998961704            0.0929532152
C             0.9959597633           -0.3540165977           -0.1853593064
C            -0.1277051684            0.4334323598            0.2184973531
C            -1.4786323411            0.0014233930            0.0019812860
N            -2.5171393593            0.7694499967            0.3981884627
N            -3.5871054814            0.0536107832            0.0359199211
C            -3.2175802222           -1.1310328940           -0.5709876251
C            -1.8391215362           -1.2490854334           -0.6361655803
C             0.2731725352            1.5967643748            0.8096664467
S             2.0020887320            1.7478828379            0.8826123479
H             4.3176670334            0.4074742731            0.0650885307
H             3.7525413904           -1.2294148598            0.4270463091
H             3.6654143458           -0.6159077377           -1.2257141170
H             0.8562427417           -1.3046699032           -0.6703225505
H            -4.5126577674            0.4200193434            0.2263120822
H            -4.0111604359           -1.7921475632           -0.9062248639
H            -0.3304151765            2.3848752474            1.2120604428
H            -3.1880218174            0.1703802265            0.3396480603
          19
 
C             3.5627285062           -0.3385557908           -0.1755513542
C             2.1957024405            0.1998961704            0.0929532152
C             0.9959597633           -0.3540165977           -0.1853593064
C            -0.1277051684            0.4334323598            0.2184973531
C            -1.4786323411            0.0014233930            0.0019812860
N            -2.5171393593            0.7694499967            0.3981884627
N            -3.5871054814            0.0536107832            0.0359199211
C            -3.2175802222           -1.1310328940           -0.5709876251
C            -1.8391215362           -1.2490854334           -0.6361655803
C             0.2731725352            1.5967643748            0.8096664467
S             2.0020887320            1.7478828379            0.8826123479
H             4.3176670334            0.4074742731            0.0650885307
H             3.7525413904           -1.2294148598            0.4270463091
H             3.6654143458           -0.6159077377           -1.2257141170
H             0.8562427417           -1.3046699032           -0.6703225505
H            -4.5126577674            0.4200193434            0.2263120822
H            -4.0111604359           -1.7921475632           -0.9062248639
H            -0.3304151765            2.3848752474            1.2120604428
H             1.5809567527            0.0753636039           -0.2825146667
          19
 
C             3.5627285062           -0.3385557908           -0.1755513542
C             2.1957024405            0.1998961704            0.0929532152
C             0.9959597633           -0.3540165977           -0.1853593064
C            -0.1277051684            0.4334323598            0.2184973531
C            -1.4786323411            0.0014233930            0.0019812860
N            -2.5171393593            0.7694499967            0.3981884627
N            -3.5871054814            0.0536107832            0.0359199211
C            -3.2175802222           -1.1310328940           -0.5709876251
C            -1.8391215362           -1.2490854334           -0.6361655803
C             0.2731725352            1.5967643748            0.8096664467
S             2.0020887320            1.7478828379            0.8826123479
H             4.3176670334            0.4074742731            0.0650885307
H             3.7525413904           -1.2294148598            0.4270463091
H             3.6654143458           -0.6159077377           -1.2257141170
H             0.8562427417           -1.3046699032           -0.6703225505
H            -4.5126577674            0.4200193434            0.2263120822
H            -4.0111604359           -1.7921475632           -0.9062248639
H            -0.3304151765            2.3848752474            1.2120604428
H             1.5813379143           -0.1788640889            0.2157715547
          19
 
C             3.5627285062           -0.3385557908           -0.1755513542
C             2.1957024405            0.1998961704            0.0929532152
C             0.9959597633           -0.3540165977           -0.1853593064
C            -0.1277051684            0.4334323598            0.2184973531
C            -1.4786323411            0.0014233930            0.0019812860
N            -2.5171393593            0.7694499967            0.3981884627
N            -3.5871054814            0.0536107832            0.0359199211
C            -3.2175802222           -1.1310328940           -0.5709876251
C            -1.8391215362           -1.2490854334           -0.6361655803
C             0.2731725352            1.5967643748            0.8096664467
S             2.0020887320            1.7478828379            0.8826123479
H             4.3176670334            0.4074742731            0.0650885307
H             3.7525413904           -1.2294148598            0.4270463091
H             3.6654143458           -0.6159077377           -1.2257141170
H             0.8562427417           -1.3046699032           -0.6703225505
H            -4.5126577674            0.4200193434            0.2263120822
H            -4.0111604359           -1.7921475632           -0.9062248639
H            -0.3304151765            2.3848752474            1.2120604428
H             0.1154177138            1.1388106336            0.2694326591
          19
 
C             3.5627285062           -0.3385557908           -0.1755513542
C             2.1957024405            0.1998961704            0.0929532152
C             0.9959597633           -0.3540165977           -0.1853593064
C            -0.1277051684            0.4334323598            0.2184973531
C            -1.4786323411            0.0014233930            0.0019812860
N            -2.5171393593            0.7694499967            0.3981884627
N            -3.5871054814            0.0536107832            0.0359199211
C            -3.2175802222           -1.1310328940           -0.5709876251
C            -1.8391215362           -1.2490854334           -0.6361655803
C             0.2731725352            1.5967643748            0.8096664467
S             2.0020887320            1.7478828379            0.8826123479
H             4.3176670334            0.4074742731            0.0650885307
H             3.7525413904           -1.2294148598            0.4270463091
H             3.6654143458           -0.6159077377           -1.2257141170
H             0.8562427417           -1.3046699032           -0.6703225505
H            -4.5126577674            0.4200193434            0.2263120822
H            -4.0111604359           -1.7921475632           -0.9062248639
H            -0.3304151765            2.3848752474            1.2120604428
H             0.1161421485            0.8905726951            0.7581893315
          19
 
C             3.5627285062           -0.3385557908           -0.1755513542
C             2.1957024405            0.1998961704            0.0929532152
C             0.9959597633           -0.3540165977           -0.1853593064
C            -0.1277051684            0.4334323598            0.2184973531
C            -1.4786323411            0.0014233930            0.0019812860
N            -2.5171393593            0.7694499967            0.3981884627
N            -3.5871054814            0.0536107832            0.0359199211
C            -3.2175802222           -1.1310328940           -0.5709876251
C            -1.8391215362           -1.2490854334           -0.6361655803
C             0.2731725352            1.5967643748            0.8096664467
S             2.0020887320            1.7478828379            0.8826123479
H             4.3176670334            0.4074742731            0.0650885307
H             3.7525413904           -1.2294148598            0.4270463091
H             3.6654143458           -0.6159077377           -1.2257141170
H             0.8562427417           -1.3046699032           -0.6703225505
H            -4.5126577674            0.4200193434            0.2263120822
H            -4.0111604359           -1.7921475632           -0.9062248639
H            -0.3304151765            2.3848752474            1.2120604428
H            -1.9644463155            0.4866045949           -0.0120453970
          19
 
C             3.5627285062           -0.3385557908           -0.1755513542
C             2.1957024405            0.1998961704            0.0929532152
C             0.9959597633           -0.3540165977           -0.1853593064
C            -0.1277051684            0.4334323598            0.2184973531
C            -1.4786323411            0.0014233930            0.0019812860
N            -2.5171393593            0.7694499967            0.3981884627
N            -3.5871054814            0.0536107832            0.0359199211
C            -3.2175802222           -1.1310328940           -0.5709876251
C            -1.8391215362           -1.2490854334           -0.6361655803
C             0.2731725352            1.5967643748            0.8096664467
S             2.0020887320            1.7478828379            0.8826123479
H             4.3176670334            0.4074742731            0.0650885307
H             3.7525413904           -1.2294148598            0.4270463091
H             3.6654143458           -0.6159077377           -1.2257141170
H             0.8562427417           -1.3046699032           -0.6703225505
H            -4.5126577674            0.4200193434            0.2263120822
H            -4.0111604359           -1.7921475632           -0.9062248639
H            -0.3304151765            2.3848752474            1.2120604428
H            -1.9625792421            0.2726534390            0.4060153381
          19
 
C             3.5627285062           -0.3385557908           -0.1755513542
C             2.1957024405            0.1998961704            0.0929532152
C             0.9959597633           -0.3540165977           -0.1853593064
C            -0.1277051684            0.4334323598            0.2184973531
C            -1.4786323411            0.0014233930            0.0019812860
N            -2.5171393593            0.7694499967            0.3981884627
N            -3.5871054814            0.0536107832            0.0359199211
C            -3.2175802222           -1.1310328940           -0.5709876251
C            -1.8391215362           -1.2490854334           -0.6361655803
C             0.2731725352            1.5967643748            0.8096664467
S             2.0020887320            1.7478828379            0.8826123479
H             4.3176670334            0.4074742731            0.0650885307
H             3.7525413904           -1.2294148598            0.4270463091
H             3.6654143458           -0.6159077377           -1.2257141170
H             0.8562427417           -1.3046699032           -0.6703225505
H            -4.5126577674            0.4200193434            0.2263120822
H            -4.0111604359           -1.7921475632           -0.9062248639
H            -0.3304151765            2.3848752474            1.2120604428
H            -2.6024858251           -0.9539278107           -0.7715633494
          19
 
C             3.5627285062           -0.3385557908           -0.1755513542
C             2.1957024405            0.1998961704            0.0929532152
C             0.9959597633           -0.3540165977           -0.1853593064
C            -0.1277051684            0.4334323598            0.2184973531
C            -1.4786323411            0.0014233930            0.0019812860
N            -2.5171393593            0.7694499967            0.3981884627
N            -3.5871054814            0.0536107832            0.0359199211
C            -3.2175802222           -1.1310328940           -0.5709876251
C            -1.8391215362           -1.2490854334           -0.6361655803
C             0.2731725352            1.5967643748            0.8096664467
S             2.0020887320            1.7478828379            0.8826123479
H             4.3176670334            0.4074742731            0.0650885307
H             3.7525413904           -1.2294148598            0.4270463091
H             3.6654143458           -0.6159077377           -1.2257141170
H             0.8562427417           -1.3046699032           -0.6703225505
H            -4.5126577674            0.4200193434            0.2263120822
H            -4.0111604359           -1.7921475632           -0.9062248639
H            -0.3304151765            2.3848752474            1.2120604428
H            -2.6010144694           -1.1882040557           -0.3133005219
          19
 
C             3.5627285062           -0.3385557908           -0.1755513542
C             2.1957024405            0.1998961704            0.0929532152
C             0.9959597633           -0.3540165977           -0.1853593064
C            -0.1277051684            0.4334323598            0.2184973531
C            -1.4786323411            0.0014233930            0.0019812860
N            -2.5171393593            0.7694499967            0.3981884627
N            -3.5871054814            0.0536107832            0.0359199211
C            -3.2175802222           -1.1310328940           -0.5709876251
C            -1.8391215362           -1.2490854334           -0.6361655803
C             0.2731725352            1.5967643748            0.8096664467
S             2.0020887320            1.7478828379            0.8826123479
H             4.3176670334            0.4074742731            0.0650885307
H             3.7525413904           -1.2294148598            0.4270463091
H             3.6654143458           -0.6159077377           -1.2257141170
H             0.8562427417           -1.3046699032           -0.6703225505
H            -4.5126577674            0.4200193434            0.2263120822
H            -4.0111604359           -1.7921475632           -0.9062248639
H            -0.3304151765            2.3848752474            1.2120604428
H            -2.5736068857            1.6333776609            0.8403371209
          19
 
C             3.5627285062           -0.3385557908           -0.1755513542
C             2.1957024405            0.1998961704            0.0929532152
C             0.9959597633           -0.3540165977           -0.1853593064
C            -0.1277051684            0.4334323598            0.2184973531
C            -1.4786323411            0.0014233930            0.0019812860
N            -2.5171393593            0.7694499967            0.3981884627
N            -3.5871054814            0.0536107832            0.0359199211
C            -3.2175802222           -1.1310328940           -0.5709876251
C            -1.8391215362           -1.2490854334           -0.6361655803
C             0.2731725352            1.5967643748            0.8096664467
S             2.0020887320            1.7478828379            0.8826123479
H             4.3176670334            0.4074742731            0.0650885307
H             3.7525413904           -1.2294148598            0.4270463091
H             3.6654143458           -0.6159077377           -1.2257141170
H             0.8562427417           -1.3046699032           -0.6703225505
H            -4.5126577674            0.4200193434            0.2263120822
H            -4.0111604359           -1.7921475632           -0.9062248639
H            -0.3304151765            2.3848752474            1.2120604428
H            -3.4408998472           -0.2407450395           -0.3604791800
          19
 
C             3.5627285062           -0.3385557908           -0.1755513542
C             2.1957024405            0.1998961704            0.0929532152
C             0.9959597633           -0.3540165977           -0.1853593064
C            -0.1277051684            0.4334323598            0.2184973531
C            -1.4786323411            0.0014233930            0.0019812860
N            -2.5171393593            0.7694499967            0.3981884627
N            -3.5871054814            0.0536107832            0.0359199211
C            -3.2175802222           -1.1310328940           -0.5709876251
C            -1.8391215362           -1.2490854334           -0.6361655803
C             0.2731725352            1.5967643748            0.8096664467
S             2.0020887320            1.7478828379            0.8826123479
H             4.3176670334            0.4074742731            0.0650885307
H             3.7525413904           -1.2294148598            0.4270463091
H             3.6654143458           -0.6159077377           -1.2257141170
H             0.8562427417           -1.3046699032           -0.6703225505
H            -4.5126577674            0.4200193434            0.2263120822
H            -4.0111604359           -1.7921475632           -0.9062248639
H            -0.3304151765            2.3848752474            1.2120604428
H            -3.4397132180           -0.4405106993            0.0281184563
          19
 
C             3.5627285062           -0.3385557908           -0.1755513542
C             2.1957024405            0.1998961704            0.0929532152
C             0.9959597633           -0.3540165977           -0.1853593064
C            -0.1277051684            0.4334323598            0.2184973531
C            -1.4786323411            0.0014233930            0.0019812860
N            -2.5171393593            0.7694499967            0.3981884627
N            -3.5871054814            0.0536107832            0.0359199211
C            -3.2175802222           -1.1310328940           -0.5709876251
C            -1.8391215362           -1.2490854334           -0.6361655803
C             0.2731725352            1.5967643748            0.8096664467
S             2.0020887320            1.7478828379            0.8826123479
H             4.3176670334            0.4074742731            0.0650885307
H             3.7525413904           -1.2294148598            0.4270463091
H             3.6654143458           -0.6159077377           -1.2257141170
H             0.8562427417           -1.3046699032           -0.6703225505
H            -4.5126577674            0.4200193434            0.2263120822
H            -4.0111604359           -1.7921475632           -0.9062248639
H            -0.3304151765            2.3848752474            1.2120604428
H            -1.5526929604           -0.4622508354           -0.4985534855
          19
 
C             3.5627285062           -0.3385557908           -0.1755513542
C             2.1957024405            0.1998961704            0.0929532152
C             0.9959597633           -0.3540165977           -0.1853593064
C            -0.1277051684            0.4334323598            0.2184973531
C            -1.4786323411            0.0014233930            0.0019812860
N            -2.5171393593            0.7694499967            0.3981884627
N            -3.5871054814            0.0536107832            0.0359199211
C            -3.2175802222           -1.1310328940           -0.5709876251
C            -1.8391215362           -1.2490854334           -0.6361655803
C             0.2731725352            1.5967643748            0.8096664467
S             2.0020887320            1.7478828379            0.8826123479
H             4.3176670334            0.4074742731            0.0650885307
H             3.7525413904           -1.2294148598            0.4270463091
H             3.6654143458           -0.6159077377           -1.2257141170
H             0.8562427417           -1.3046699032           -0.6703225505
H            -4.5126577674            0.4200193434            0.2263120822
H            -4.0111604359           -1.7921475632           -0.9062248639
H            -0.3304151765            2.3848752474            1.2120604428
H            -1.5514852814           -0.6764294423           -0.0806068094
