energy: -3.739265082039 gnorm: 0.000938632264 xtb: 6.4.1 (afa7bdf)
 OpenBabel11022218133D

 19 20  0  0  0  0  0  0  0  0999 V2000
   -1.8552    0.6312   -1.0244 C   0  0  0  0  0  0  0  0  0  0  0  0
   -1.4131    0.0323    0.1827 C   0  0  0  0  0  0  0  0  0  0  0  0
   -0.0162   -0.2561    0.5462 C   0  0  0  0  0  0  0  0  0  0  0  0
    1.1204    0.0403   -0.2839 C   0  0  0  0  0  0  0  0  0  0  0  0
    2.3069   -0.3194    0.2584 C   0  0  0  0  0  0  0  0  0  0  0  0
    2.0506   -1.0350    1.8264 S   0  0  0  0  0  0  0  0  0  0  0  0
    0.3371   -0.8397    1.7198 C   0  0  0  0  0  0  0  0  0  0  0  0
    3.6314   -0.1296   -0.3619 C   0  0  0  0  0  0  0  0  0  0  0  0
   -2.4543   -0.2422    0.9618 N   0  0  0  0  0  0  0  0  0  0  0  0
   -3.5169    0.1613    0.2879 N   0  0  0  0  0  0  0  0  0  0  0  0
   -3.2098    0.7052   -0.9369 C   0  0  0  0  0  0  0  0  0  0  0  0
   -1.2392    0.9601   -1.8450 H   0  0  0  0  0  0  0  0  0  0  0  0
    1.0345    0.5083   -1.2513 H   0  0  0  0  0  0  0  0  0  0  0  0
   -0.3565   -1.1399    2.4805 H   0  0  0  0  0  0  0  0  0  0  0  0
    4.0579    0.8334   -0.0780 H   0  0  0  0  0  0  0  0  0  0  0  0
    4.3233   -0.9108   -0.0438 H   0  0  0  0  0  0  0  0  0  0  0  0
    3.5648   -0.1625   -1.4505 H   0  0  0  0  0  0  0  0  0  0  0  0
   -4.4634    0.0615    0.6750 H   0  0  0  0  0  0  0  0  0  0  0  0
   -3.9021    1.1015   -1.6627 H   0  0  0  0  0  0  0  0  0  0  0  0
  1 11  2  0  0  0  0
  1  2  1  0  0  0  0
  2  3  1  0  0  0  0
  2  9  2  0  0  0  0
  3  7  2  0  0  0  0
  4  5  2  0  0  0  0
  4  3  1  0  0  0  0
  5  6  1  0  0  0  0
  7  6  1  0  0  0  0
  7 14  1  0  0  0  0
  8 15  1  0  0  0  0
  8 16  1  0  0  0  0
  8  5  1  0  0  0  0
 10 18  1  0  0  0  0
 10  9  1  0  0  0  0
 11 10  1  0  0  0  0
 12  1  1  0  0  0  0
 13  4  1  0  0  0  0
 17  8  1  0  0  0  0
 19 11  1  0  0  0  0
M  END
$$$$
