energy: -4.656184507753 gnorm: 0.000575741636 xtb: 6.4.1 (afa7bdf)
 OpenBabel11022218133D

 18 19  0  0  0  0  0  0  0  0999 V2000
    3.3633   -0.3261    0.6463 C   0  0  0  0  0  0  0  0  0  0  0  0
    2.0919   -0.3037   -0.1140 C   0  0  0  0  0  0  0  0  0  0  0  0
    0.8725   -0.0343    0.4198 C   0  0  0  0  0  0  0  0  0  0  0  0
   -0.2094   -0.0789   -0.5315 C   0  0  0  0  0  0  0  0  0  0  0  0
   -1.6248    0.1798   -0.1995 C   0  0  0  0  0  0  0  0  0  0  0  0
   -2.6242    0.1449   -1.0677 N   0  0  0  0  0  0  0  0  0  0  0  0
   -3.7004    0.4413   -0.3145 N   0  0  0  0  0  0  0  0  0  0  0  0
   -3.4449    0.6660    0.9988 C   0  0  0  0  0  3  0  0  0  0  0  0
   -2.1267    0.5096    1.1204 C   0  0  0  0  0  0  0  0  0  0  0  0
    0.2269   -0.3885   -1.7851 C   0  0  0  0  0  0  0  0  0  0  0  0
    1.9465   -0.6294   -1.8307 S   0  0  0  0  0  0  0  0  0  0  0  0
    3.4929    0.5937    1.2262 H   0  0  0  0  0  0  0  0  0  0  0  0
    3.3897   -1.1703    1.3433 H   0  0  0  0  0  0  0  0  0  0  0  0
    4.2219   -0.4203   -0.0265 H   0  0  0  0  0  0  0  0  0  0  0  0
    0.7277    0.1935    1.4657 H   0  0  0  0  0  0  0  0  0  0  0  0
   -4.6462    0.4883   -0.7326 H   0  0  0  0  0  0  0  0  0  0  0  0
   -1.5450    0.6089    2.0262 H   0  0  0  0  0  0  0  0  0  0  0  0
   -0.4115   -0.4744   -2.6447 H   0  0  0  0  0  0  0  0  0  0  0  0
  1 12  1  0  0  0  0
  1 13  1  0  0  0  0
  2  3  2  0  0  0  0
  2  1  1  0  0  0  0
  3 15  1  0  0  0  0
  4  5  1  0  0  0  0
  4  3  1  0  0  0  0
  5  9  1  0  0  0  0
  6  7  1  0  0  0  0
  6  5  2  0  0  0  0
  7  8  1  0  0  0  0
  8  9  2  0  0  0  0
  9 17  1  0  0  0  0
 10  4  2  0  0  0  0
 11 10  1  0  0  0  0
 11  2  1  0  0  0  0
 14  1  1  0  0  0  0
 16  7  1  0  0  0  0
 18 10  1  0  0  0  0
M  END
$$$$
