energy: -29.925155562925 gnorm: 0.000259671875 xtb: 6.4.1 (afa7bdf)
 OpenBabel11022218133D

 18 18  0  0  1  0  0  0  0  0999 V2000
   -3.6004    0.5210   -0.0499 C   0  0  0  0  0  0  0  0  0  0  0  0
   -2.2612   -0.0392   -0.0109 C   0  0  0  0  0  0  0  0  0  0  0  0
   -1.1537   -0.5120    0.0230 C   0  0  0  0  0  0  0  0  0  0  0  0
    0.1419   -1.0675    0.0654 C   0  0  2  0  0  3  0  0  0  0  0  0
    1.2401   -0.1681   -0.1447 C   0  0  0  0  0  0  0  0  0  0  0  0
    2.5258   -0.5283   -0.1341 N   0  0  0  0  0  0  0  0  0  0  0  0
    3.2253    0.6002   -0.3688 N   0  0  0  0  0  0  0  0  0  0  0  0
    2.4196    1.6772   -0.5298 C   0  0  0  0  0  0  0  0  0  0  0  0
    1.1359    1.2329   -0.3945 C   0  0  0  0  0  0  0  0  0  0  0  0
    0.3448   -2.4089    0.2967 C   0  0  0  0  0  0  0  0  0  0  0  0
   -0.8221   -3.5860    0.5603 S   0  0  0  0  0  0  0  0  0  0  0  0
   -4.1088    0.2402   -0.9765 H   0  0  0  0  0  0  0  0  0  0  0  0
   -3.5603    1.6126    0.0067 H   0  0  0  0  0  0  0  0  0  0  0  0
   -4.1905    0.1508    0.7918 H   0  0  0  0  0  0  0  0  0  0  0  0
    4.2300    0.5635   -0.4045 H   0  0  0  0  0  0  0  0  0  0  0  0
    2.8243    2.6538   -0.7243 H   0  0  0  0  0  0  0  0  0  0  0  0
    0.2287    1.7996   -0.4591 H   0  0  0  0  0  0  0  0  0  0  0  0
    1.3805   -2.7417    0.3105 H   0  0  0  0  0  0  0  0  0  0  0  0
  1  2  1  0  0  0  0
  1 13  1  0  0  0  0
  1 14  1  0  0  0  0
  2  3  3  0  0  0  0
  4  3  1  6  0  0  0
  4 10  1  0  0  0  0
  5  6  2  0  0  0  0
  5  4  1  0  0  0  0
  7  6  1  0  0  0  0
  8  9  2  0  0  0  0
  8  7  1  0  0  0  0
  9  5  1  0  0  0  0
 10 18  1  0  0  0  0
 10 11  2  0  0  0  0
 12  1  1  0  0  0  0
 15  7  1  0  0  0  0
 16  8  1  0  0  0  0
 17  9  1  0  0  0  0
M  END
$$$$
