energy: -4.675156127902 gnorm: 0.000744408621 xtb: 6.4.1 (afa7bdf)
 OpenBabel11022218133D

 18 19  0  0  0  0  0  0  0  0999 V2000
   -3.5618   -0.1394   -0.3150 C   0  0  0  0  0  0  0  0  0  0  0  0
   -2.2327    0.3187    0.1520 C   0  0  0  0  0  0  0  0  0  0  0  0
   -1.0477   -0.2321   -0.2178 C   0  0  0  0  0  0  0  0  0  0  0  0
    0.1034    0.3963    0.3730 C   0  0  0  0  0  0  0  0  0  0  0  0
    1.4941   -0.0378    0.1058 C   0  0  0  0  0  0  0  0  0  0  0  0
    1.8123   -1.0495   -0.7274 N   0  0  0  0  0  0  0  0  0  0  0  0
    3.1348   -1.1130   -0.6875 N   0  0  0  0  0  0  0  0  0  0  0  0
    3.6900   -0.1473    0.1691 C   0  0  0  0  0  0  0  0  0  0  0  0
    2.6497    0.5214    0.6608 C   0  0  0  0  0  3  0  0  0  0  0  0
   -0.2411    1.4288    1.1933 C   0  0  0  0  0  0  0  0  0  0  0  0
   -1.9636    1.6514    1.2595 S   0  0  0  0  0  0  0  0  0  0  0  0
   -3.6544   -0.0360   -1.4012 H   0  0  0  0  0  0  0  0  0  0  0  0
   -4.3641    0.4453    0.1465 H   0  0  0  0  0  0  0  0  0  0  0  0
   -3.7273   -1.1918   -0.0616 H   0  0  0  0  0  0  0  0  0  0  0  0
   -0.9704   -1.0667   -0.8990 H   0  0  0  0  0  0  0  0  0  0  0  0
    3.6796   -1.7977   -1.2305 H   0  0  0  0  0  0  0  0  0  0  0  0
    4.7387    0.0116    0.3762 H   0  0  0  0  0  0  0  0  0  0  0  0
    0.4607    2.0378    1.7326 H   0  0  0  0  0  0  0  0  0  0  0  0
  1 14  1  0  0  0  0
  1 13  1  0  0  0  0
  1  2  1  0  0  0  0
  2 11  1  0  0  0  0
  3  2  2  0  0  0  0
  3  4  1  0  0  0  0
  4 10  2  0  0  0  0
  5  4  1  0  0  0  0
  5  9  1  0  0  0  0
  6  7  1  0  0  0  0
  6  5  2  0  0  0  0
  7  8  1  0  0  0  0
  8 17  1  0  0  0  0
  8  9  2  0  0  0  0
 10 11  1  0  0  0  0
 10 18  1  0  0  0  0
 12  1  1  0  0  0  0
 15  3  1  0  0  0  0
 16  7  1  0  0  0  0
M  END
$$$$
