          19
 
C             3.4840784084           -0.5624108162           -0.6108880637
C             2.1984933337            0.0587214877           -0.1809679777
C             0.9422151251           -0.4184743812           -0.3020540882
C            -0.0724811715            0.4413636359            0.2267644172
C            -1.4638984057            0.0938043057            0.1842338013
N            -2.3952473125            0.9287638241            0.6944503579
N            -3.5443298011            0.2796346819            0.4777826747
C            -3.3273182682           -0.9302112004           -0.1524800155
C            -1.9777164416           -1.1364466332           -0.3853389423
C             0.4700847876            1.5793483186            0.7481743671
S             2.2026233737            1.6222210155            0.6060904283
H             4.1239724732           -0.7702020557            0.2500626714
H             4.0325972915            0.1022905459           -1.2807929618
H             3.2819799053           -1.4978429043           -1.1302978817
H             0.6848375009           -1.3613971118           -0.7529250371
H            -4.4150097039            0.7057131691            0.7734876470
H            -4.1963818796           -1.5414770929           -0.3767693514
H            -0.0285002152            2.4066002112            1.2114649544
H             2.4521730222            2.4881956719           -0.4488081188
          19
 
C             3.4840784084           -0.5624108162           -0.6108880637
C             2.1984933337            0.0587214877           -0.1809679777
C             0.9422151251           -0.4184743812           -0.3020540882
C            -0.0724811715            0.4413636359            0.2267644172
C            -1.4638984057            0.0938043057            0.1842338013
N            -2.3952473125            0.9287638241            0.6944503579
N            -3.5443298011            0.2796346819            0.4777826747
C            -3.3273182682           -0.9302112004           -0.1524800155
C            -1.9777164416           -1.1364466332           -0.3853389423
C             0.4700847876            1.5793483186            0.7481743671
S             2.2026233737            1.6222210155            0.6060904283
H             4.1239724732           -0.7702020557            0.2500626714
H             4.0325972915            0.1022905459           -1.2807929618
H             3.2819799053           -1.4978429043           -1.1302978817
H             0.6848375009           -1.3613971118           -0.7529250371
H            -4.4150097039            0.7057131691            0.7734876470
H            -4.1963818796           -1.5414770929           -0.3767693514
H            -0.0285002152            2.4066002112            1.2114649544
H             2.6711121085            1.3180379074            1.8751139017
          19
 
C             3.4840784084           -0.5624108162           -0.6108880637
C             2.1984933337            0.0587214877           -0.1809679777
C             0.9422151251           -0.4184743812           -0.3020540882
C            -0.0724811715            0.4413636359            0.2267644172
C            -1.4638984057            0.0938043057            0.1842338013
N            -2.3952473125            0.9287638241            0.6944503579
N            -3.5443298011            0.2796346819            0.4777826747
C            -3.3273182682           -0.9302112004           -0.1524800155
C            -1.9777164416           -1.1364466332           -0.3853389423
C             0.4700847876            1.5793483186            0.7481743671
S             2.2026233737            1.6222210155            0.6060904283
H             4.1239724732           -0.7702020557            0.2500626714
H             4.0325972915            0.1022905459           -1.2807929618
H             3.2819799053           -1.4978429043           -1.1302978817
H             0.6848375009           -1.3613971118           -0.7529250371
H            -4.4150097039            0.7057131691            0.7734876470
H            -4.1963818796           -1.5414770929           -0.3767693514
H            -0.0285002152            2.4066002112            1.2114649544
H            -3.1394445496            0.5707121542            0.3404220232
          19
 
C             3.4840784084           -0.5624108162           -0.6108880637
C             2.1984933337            0.0587214877           -0.1809679777
C             0.9422151251           -0.4184743812           -0.3020540882
C            -0.0724811715            0.4413636359            0.2267644172
C            -1.4638984057            0.0938043057            0.1842338013
N            -2.3952473125            0.9287638241            0.6944503579
N            -3.5443298011            0.2796346819            0.4777826747
C            -3.3273182682           -0.9302112004           -0.1524800155
C            -1.9777164416           -1.1364466332           -0.3853389423
C             0.4700847876            1.5793483186            0.7481743671
S             2.2026233737            1.6222210155            0.6060904283
H             4.1239724732           -0.7702020557            0.2500626714
H             4.0325972915            0.1022905459           -1.2807929618
H             3.2819799053           -1.4978429043           -1.1302978817
H             0.6848375009           -1.3613971118           -0.7529250371
H            -4.4150097039            0.7057131691            0.7734876470
H            -4.1963818796           -1.5414770929           -0.3767693514
H            -0.0285002152            2.4066002112            1.2114649544
H            -3.1050018533            0.3719862909            0.7280899804
          19
 
C             3.4840784084           -0.5624108162           -0.6108880637
C             2.1984933337            0.0587214877           -0.1809679777
C             0.9422151251           -0.4184743812           -0.3020540882
C            -0.0724811715            0.4413636359            0.2267644172
C            -1.4638984057            0.0938043057            0.1842338013
N            -2.3952473125            0.9287638241            0.6944503579
N            -3.5443298011            0.2796346819            0.4777826747
C            -3.3273182682           -0.9302112004           -0.1524800155
C            -1.9777164416           -1.1364466332           -0.3853389423
C             0.4700847876            1.5793483186            0.7481743671
S             2.2026233737            1.6222210155            0.6060904283
H             4.1239724732           -0.7702020557            0.2500626714
H             4.0325972915            0.1022905459           -1.2807929618
H             3.2819799053           -1.4978429043           -1.1302978817
H             0.6848375009           -1.3613971118           -0.7529250371
H            -4.4150097039            0.7057131691            0.7734876470
H            -4.1963818796           -1.5414770929           -0.3767693514
H            -0.0285002152            2.4066002112            1.2114649544
H             1.5382415479           -0.0286107702           -0.4760824414
          19
 
C             3.4840784084           -0.5624108162           -0.6108880637
C             2.1984933337            0.0587214877           -0.1809679777
C             0.9422151251           -0.4184743812           -0.3020540882
C            -0.0724811715            0.4413636359            0.2267644172
C            -1.4638984057            0.0938043057            0.1842338013
N            -2.3952473125            0.9287638241            0.6944503579
N            -3.5443298011            0.2796346819            0.4777826747
C            -3.3273182682           -0.9302112004           -0.1524800155
C            -1.9777164416           -1.1364466332           -0.3853389423
C             0.4700847876            1.5793483186            0.7481743671
S             2.2026233737            1.6222210155            0.6060904283
H             4.1239724732           -0.7702020557            0.2500626714
H             4.0325972915            0.1022905459           -1.2807929618
H             3.2819799053           -1.4978429043           -1.1302978817
H             0.6848375009           -1.3613971118           -0.7529250371
H            -4.4150097039            0.7057131691            0.7734876470
H            -4.1963818796           -1.5414770929           -0.3767693514
H            -0.0285002152            2.4066002112            1.2114649544
H             1.5847999493           -0.2789628322            0.0209277604
          19
 
C             3.4840784084           -0.5624108162           -0.6108880637
C             2.1984933337            0.0587214877           -0.1809679777
C             0.9422151251           -0.4184743812           -0.3020540882
C            -0.0724811715            0.4413636359            0.2267644172
C            -1.4638984057            0.0938043057            0.1842338013
N            -2.3952473125            0.9287638241            0.6944503579
N            -3.5443298011            0.2796346819            0.4777826747
C            -3.3273182682           -0.9302112004           -0.1524800155
C            -1.9777164416           -1.1364466332           -0.3853389423
C             0.4700847876            1.5793483186            0.7481743671
S             2.2026233737            1.6222210155            0.6060904283
H             4.1239724732           -0.7702020557            0.2500626714
H             4.0325972915            0.1022905459           -1.2807929618
H             3.2819799053           -1.4978429043           -1.1302978817
H             0.6848375009           -1.3613971118           -0.7529250371
H            -4.4150097039            0.7057131691            0.7734876470
H            -4.1963818796           -1.5414770929           -0.3767693514
H            -0.0285002152            2.4066002112            1.2114649544
H             0.2167636241            1.1304940136            0.2379018855
          19
 
C             3.4840784084           -0.5624108162           -0.6108880637
C             2.1984933337            0.0587214877           -0.1809679777
C             0.9422151251           -0.4184743812           -0.3020540882
C            -0.0724811715            0.4413636359            0.2267644172
C            -1.4638984057            0.0938043057            0.1842338013
N            -2.3952473125            0.9287638241            0.6944503579
N            -3.5443298011            0.2796346819            0.4777826747
C            -3.3273182682           -0.9302112004           -0.1524800155
C            -1.9777164416           -1.1364466332           -0.3853389423
C             0.4700847876            1.5793483186            0.7481743671
S             2.2026233737            1.6222210155            0.6060904283
H             4.1239724732           -0.7702020557            0.2500626714
H             4.0325972915            0.1022905459           -1.2807929618
H             3.2819799053           -1.4978429043           -1.1302978817
H             0.6848375009           -1.3613971118           -0.7529250371
H            -4.4150097039            0.7057131691            0.7734876470
H            -4.1963818796           -1.5414770929           -0.3767693514
H            -0.0285002152            2.4066002112            1.2114649544
H             0.2628077140            0.8848359063            0.7266489813
          19
 
C             3.4840784084           -0.5624108162           -0.6108880637
C             2.1984933337            0.0587214877           -0.1809679777
C             0.9422151251           -0.4184743812           -0.3020540882
C            -0.0724811715            0.4413636359            0.2267644172
C            -1.4638984057            0.0938043057            0.1842338013
N            -2.3952473125            0.9287638241            0.6944503579
N            -3.5443298011            0.2796346819            0.4777826747
C            -3.3273182682           -0.9302112004           -0.1524800155
C            -1.9777164416           -1.1364466332           -0.3853389423
C             0.4700847876            1.5793483186            0.7481743671
S             2.2026233737            1.6222210155            0.6060904283
H             4.1239724732           -0.7702020557            0.2500626714
H             4.0325972915            0.1022905459           -1.2807929618
H             3.2819799053           -1.4978429043           -1.1302978817
H             0.6848375009           -1.3613971118           -0.7529250371
H            -4.4150097039            0.7057131691            0.7734876470
H            -4.1963818796           -1.5414770929           -0.3767693514
H            -0.0285002152            2.4066002112            1.2114649544
H            -1.8758269620            0.3979750126            0.6410618996
          19
 
C             3.4840784084           -0.5624108162           -0.6108880637
C             2.1984933337            0.0587214877           -0.1809679777
C             0.9422151251           -0.4184743812           -0.3020540882
C            -0.0724811715            0.4413636359            0.2267644172
C            -1.4638984057            0.0938043057            0.1842338013
N            -2.3952473125            0.9287638241            0.6944503579
N            -3.5443298011            0.2796346819            0.4777826747
C            -3.3273182682           -0.9302112004           -0.1524800155
C            -1.9777164416           -1.1364466332           -0.3853389423
C             0.4700847876            1.5793483186            0.7481743671
S             2.2026233737            1.6222210155            0.6060904283
H             4.1239724732           -0.7702020557            0.2500626714
H             4.0325972915            0.1022905459           -1.2807929618
H             3.2819799053           -1.4978429043           -1.1302978817
H             0.6848375009           -1.3613971118           -0.7529250371
H            -4.4150097039            0.7057131691            0.7734876470
H            -4.1963818796           -1.5414770929           -0.3767693514
H            -0.0285002152            2.4066002112            1.2114649544
H            -1.9159608284            0.6086166174            0.2232858376
          19
 
C             3.4840784084           -0.5624108162           -0.6108880637
C             2.1984933337            0.0587214877           -0.1809679777
C             0.9422151251           -0.4184743812           -0.3020540882
C            -0.0724811715            0.4413636359            0.2267644172
C            -1.4638984057            0.0938043057            0.1842338013
N            -2.3952473125            0.9287638241            0.6944503579
N            -3.5443298011            0.2796346819            0.4777826747
C            -3.3273182682           -0.9302112004           -0.1524800155
C            -1.9777164416           -1.1364466332           -0.3853389423
C             0.4700847876            1.5793483186            0.7481743671
S             2.2026233737            1.6222210155            0.6060904283
H             4.1239724732           -0.7702020557            0.2500626714
H             4.0325972915            0.1022905459           -1.2807929618
H             3.2819799053           -1.4978429043           -1.1302978817
H             0.6848375009           -1.3613971118           -0.7529250371
H            -4.4150097039            0.7057131691            0.7734876470
H            -4.1963818796           -1.5414770929           -0.3767693514
H            -0.0285002152            2.4066002112            1.2114649544
H            -2.6884903671           -1.0245699185            0.0281475584
          19
 
C             3.4840784084           -0.5624108162           -0.6108880637
C             2.1984933337            0.0587214877           -0.1809679777
C             0.9422151251           -0.4184743812           -0.3020540882
C            -0.0724811715            0.4413636359            0.2267644172
C            -1.4638984057            0.0938043057            0.1842338013
N            -2.3952473125            0.9287638241            0.6944503579
N            -3.5443298011            0.2796346819            0.4777826747
C            -3.3273182682           -0.9302112004           -0.1524800155
C            -1.9777164416           -1.1364466332           -0.3853389423
C             0.4700847876            1.5793483186            0.7481743671
S             2.2026233737            1.6222210155            0.6060904283
H             4.1239724732           -0.7702020557            0.2500626714
H             4.0325972915            0.1022905459           -1.2807929618
H             3.2819799053           -1.4978429043           -1.1302978817
H             0.6848375009           -1.3613971118           -0.7529250371
H            -4.4150097039            0.7057131691            0.7734876470
H            -4.1963818796           -1.5414770929           -0.3767693514
H            -0.0285002152            2.4066002112            1.2114649544
H            -2.7321452792           -0.7939624799           -0.4298781089
          19
 
C             3.4840784084           -0.5624108162           -0.6108880637
C             2.1984933337            0.0587214877           -0.1809679777
C             0.9422151251           -0.4184743812           -0.3020540882
C            -0.0724811715            0.4413636359            0.2267644172
C            -1.4638984057            0.0938043057            0.1842338013
N            -2.3952473125            0.9287638241            0.6944503579
N            -3.5443298011            0.2796346819            0.4777826747
C            -3.3273182682           -0.9302112004           -0.1524800155
C            -1.9777164416           -1.1364466332           -0.3853389423
C             0.4700847876            1.5793483186            0.7481743671
S             2.2026233737            1.6222210155            0.6060904283
H             4.1239724732           -0.7702020557            0.2500626714
H             4.0325972915            0.1022905459           -1.2807929618
H             3.2819799053           -1.4978429043           -1.1302978817
H             0.6848375009           -1.3613971118           -0.7529250371
H            -4.4150097039            0.7057131691            0.7734876470
H            -4.1963818796           -1.5414770929           -0.3767693514
H            -0.0285002152            2.4066002112            1.2114649544
H            -2.3428117062            1.7976764463            1.1270399726
          19
 
C             3.4840784084           -0.5624108162           -0.6108880637
C             2.1984933337            0.0587214877           -0.1809679777
C             0.9422151251           -0.4184743812           -0.3020540882
C            -0.0724811715            0.4413636359            0.2267644172
C            -1.4638984057            0.0938043057            0.1842338013
N            -2.3952473125            0.9287638241            0.6944503579
N            -3.5443298011            0.2796346819            0.4777826747
C            -3.3273182682           -0.9302112004           -0.1524800155
C            -1.9777164416           -1.1364466332           -0.3853389423
C             0.4700847876            1.5793483186            0.7481743671
S             2.2026233737            1.6222210155            0.6060904283
H             4.1239724732           -0.7702020557            0.2500626714
H             4.0325972915            0.1022905459           -1.2807929618
H             3.2819799053           -1.4978429043           -1.1302978817
H             0.6848375009           -1.3613971118           -0.7529250371
H            -4.4150097039            0.7057131691            0.7734876470
H            -4.1963818796           -1.5414770929           -0.3767693514
H            -0.0285002152            2.4066002112            1.2114649544
H            -3.4668240567           -0.0248526700            0.0710001523
          19
 
C             3.4840784084           -0.5624108162           -0.6108880637
C             2.1984933337            0.0587214877           -0.1809679777
C             0.9422151251           -0.4184743812           -0.3020540882
C            -0.0724811715            0.4413636359            0.2267644172
C            -1.4638984057            0.0938043057            0.1842338013
N            -2.3952473125            0.9287638241            0.6944503579
N            -3.5443298011            0.2796346819            0.4777826747
C            -3.3273182682           -0.9302112004           -0.1524800155
C            -1.9777164416           -1.1364466332           -0.3853389423
C             0.4700847876            1.5793483186            0.7481743671
S             2.2026233737            1.6222210155            0.6060904283
H             4.1239724732           -0.7702020557            0.2500626714
H             4.0325972915            0.1022905459           -1.2807929618
H             3.2819799053           -1.4978429043           -1.1302978817
H             0.6848375009           -1.3613971118           -0.7529250371
H            -4.4150097039            0.7057131691            0.7734876470
H            -4.1963818796           -1.5414770929           -0.3767693514
H            -0.0285002152            2.4066002112            1.2114649544
H            -3.4302243186           -0.2244638699            0.4580150310
          19
 
C             3.4840784084           -0.5624108162           -0.6108880637
C             2.1984933337            0.0587214877           -0.1809679777
C             0.9422151251           -0.4184743812           -0.3020540882
C            -0.0724811715            0.4413636359            0.2267644172
C            -1.4638984057            0.0938043057            0.1842338013
N            -2.3952473125            0.9287638241            0.6944503579
N            -3.5443298011            0.2796346819            0.4777826747
C            -3.3273182682           -0.9302112004           -0.1524800155
C            -1.9777164416           -1.1364466332           -0.3853389423
C             0.4700847876            1.5793483186            0.7481743671
S             2.2026233737            1.6222210155            0.6060904283
H             4.1239724732           -0.7702020557            0.2500626714
H             4.0325972915            0.1022905459           -1.2807929618
H             3.2819799053           -1.4978429043           -1.1302978817
H             0.6848375009           -1.3613971118           -0.7529250371
H            -4.4150097039            0.7057131691            0.7734876470
H            -4.1963818796           -1.5414770929           -0.3767693514
H            -0.0285002152            2.4066002112            1.2114649544
H            -1.6278468966           -0.3678840062           -0.2962468118
          19
 
C             3.4840784084           -0.5624108162           -0.6108880637
C             2.1984933337            0.0587214877           -0.1809679777
C             0.9422151251           -0.4184743812           -0.3020540882
C            -0.0724811715            0.4413636359            0.2267644172
C            -1.4638984057            0.0938043057            0.1842338013
N            -2.3952473125            0.9287638241            0.6944503579
N            -3.5443298011            0.2796346819            0.4777826747
C            -3.3273182682           -0.9302112004           -0.1524800155
C            -1.9777164416           -1.1364466332           -0.3853389423
C             0.4700847876            1.5793483186            0.7481743671
S             2.2026233737            1.6222210155            0.6060904283
H             4.1239724732           -0.7702020557            0.2500626714
H             4.0325972915            0.1022905459           -1.2807929618
H             3.2819799053           -1.4978429043           -1.1302978817
H             0.6848375009           -1.3613971118           -0.7529250371
H            -4.4150097039            0.7057131691            0.7734876470
H            -4.1963818796           -1.5414770929           -0.3767693514
H            -0.0285002152            2.4066002112            1.2114649544
H            -1.5871126165           -0.5783613966            0.1215538921
