energy: -4.655896268348 gnorm: 0.000711992207 xtb: 6.4.1 (afa7bdf)
 OpenBabel11022218133D

 18 19  0  0  0  0  0  0  0  0999 V2000
   -3.4292   -0.3597    0.5573 C   0  0  0  0  0  0  0  0  0  0  0  0
   -2.1313    0.1759    0.0836 C   0  0  0  0  0  0  0  0  0  0  0  0
   -0.9167   -0.3800    0.3308 C   0  0  0  0  0  0  0  0  0  0  0  0
    0.1899    0.3450   -0.2368 C   0  0  0  0  0  0  0  0  0  0  0  0
    1.5955   -0.0849   -0.0956 C   0  0  0  0  0  0  0  0  0  0  0  0
    1.9953   -1.1654    0.5574 N   0  0  0  0  0  0  0  0  0  0  0  0
    3.3335   -1.1396    0.4102 N   0  0  0  0  0  0  0  0  0  0  0  0
    3.8192   -0.0950   -0.3064 C   0  0  0  0  0  3  0  0  0  0  0  0
    2.7411    0.6089   -0.6521 C   0  0  0  0  0  0  0  0  0  0  0  0
   -0.2210    1.4581   -0.9109 C   0  0  0  0  0  0  0  0  0  0  0  0
   -1.9481    1.6381   -0.8658 S   0  0  0  0  0  0  0  0  0  0  0  0
   -3.7033    0.0749    1.5245 H   0  0  0  0  0  0  0  0  0  0  0  0
   -3.3915   -1.4477    0.6756 H   0  0  0  0  0  0  0  0  0  0  0  0
   -4.2310   -0.1304   -0.1526 H   0  0  0  0  0  0  0  0  0  0  0  0
   -0.7856   -1.2869    0.9026 H   0  0  0  0  0  0  0  0  0  0  0  0
    3.9274   -1.8788    0.8252 H   0  0  0  0  0  0  0  0  0  0  0  0
    2.7235    1.5200   -1.2338 H   0  0  0  0  0  0  0  0  0  0  0  0
    0.4323    2.1475   -1.4131 H   0  0  0  0  0  0  0  0  0  0  0  0
  1 13  1  0  0  0  0
  1 12  1  0  0  0  0
  2  3  2  0  0  0  0
  2  1  1  0  0  0  0
  3 15  1  0  0  0  0
  4  5  1  0  0  0  0
  4  3  1  0  0  0  0
  5  6  2  0  0  0  0
  7  6  1  0  0  0  0
  7 16  1  0  0  0  0
  8  7  1  0  0  0  0
  9  8  2  0  0  0  0
  9  5  1  0  0  0  0
 10 11  1  0  0  0  0
 10  4  2  0  0  0  0
 11  2  1  0  0  0  0
 14  1  1  0  0  0  0
 17  9  1  0  0  0  0
 18 10  1  0  0  0  0
M  END
$$$$
