energy: -29.899865435765 gnorm: 0.000486755396 xtb: 6.4.1 (afa7bdf)
 OpenBabel11022218133D

 18 19  0  0  0  0  0  0  0  0999 V2000
   -3.4103   -0.3703    0.5532 C   0  0  0  0  0  0  0  0  0  0  0  0
   -2.0801    0.1494    0.1255 C   0  0  0  0  0  0  0  0  0  0  0  0
   -0.8572   -0.3907    0.3153 C   0  0  0  0  0  0  0  0  0  0  0  0
    0.2212    0.3753   -0.2329 C   0  0  0  0  0  0  0  0  0  0  0  0
    1.5966   -0.0291   -0.1398 C   0  0  0  0  0  0  0  0  0  0  0  0
    1.9344   -1.1643    0.5000 N   0  0  0  0  0  0  0  0  0  0  0  0
    3.2839   -1.1883    0.3665 N   0  0  0  0  0  0  0  0  0  0  0  0
    3.8866   -0.1625   -0.3127 C   0  0  0  0  0  3  0  0  0  0  0  0
    2.7486    0.6054   -0.6463 C   0  0  0  0  0  0  0  0  0  0  0  0
   -0.2409    1.5068   -0.8382 C   0  0  0  0  0  0  0  0  0  0  0  0
   -1.9688    1.6550   -0.7529 S   0  0  0  0  0  0  0  0  0  0  0  0
   -3.9202    0.3482    1.1963 H   0  0  0  0  0  0  0  0  0  0  0  0
   -3.2808   -1.3017    1.1011 H   0  0  0  0  0  0  0  0  0  0  0  0
   -4.0503   -0.5574   -0.3105 H   0  0  0  0  0  0  0  0  0  0  0  0
   -0.6780   -1.3175    0.8318 H   0  0  0  0  0  0  0  0  0  0  0  0
    3.7663   -1.9740    0.7831 H   0  0  0  0  0  0  0  0  0  0  0  0
    2.7406    1.5357   -1.2023 H   0  0  0  0  0  0  0  0  0  0  0  0
    0.3085    2.2798   -1.3374 H   0  0  0  0  0  0  0  0  0  0  0  0
  1 13  1  0  0  0  0
  1 12  1  0  0  0  0
  2  3  2  0  0  0  0
  2  1  1  0  0  0  0
  3 15  1  0  0  0  0
  4  5  1  0  0  0  0
  4  3  1  0  0  0  0
  5  6  2  0  0  0  0
  7  6  1  0  0  0  0
  7 16  1  0  0  0  0
  8  7  1  0  0  0  0
  9  8  2  0  0  0  0
  9  5  1  0  0  0  0
 10 11  1  0  0  0  0
 10  4  2  0  0  0  0
 11  2  1  0  0  0  0
 14  1  1  0  0  0  0
 17  9  1  0  0  0  0
 18 10  1  0  0  0  0
M  END
$$$$
