energy: -2.695502599083 gnorm: 0.000338006217 xtb: 6.4.1 (afa7bdf)
 OpenBabel11042210553D

  8  8  0  0  0  0  0  0  0  0999 V2000
    0.6612   -1.3872   -0.0205 C   0  0  0  0  0  3  0  0  0  0  0  0
    1.1299   -0.1150    0.0792 C   0  0  0  0  0  0  0  0  0  0  0  0
   -0.0026    0.7360    0.2133 C   0  0  0  0  0  0  0  0  0  0  0  0
   -1.1115   -0.0821    0.1866 C   0  0  0  0  0  0  0  0  0  0  0  0
   -0.7161   -1.4233    0.0401 O   0  0  0  0  0  0  0  0  0  0  0  0
    2.1722    0.1945    0.0602 H   0  0  0  0  0  0  0  0  0  0  0  0
    0.0064    1.8185    0.3171 H   0  0  0  0  0  0  0  0  0  0  0  0
   -2.1395    0.2586    0.2660 H   0  0  0  0  0  0  0  0  0  0  0  0
  1  5  1  0  0  0  0
  1  2  2  0  0  0  0
  2  3  1  0  0  0  0
  3  7  1  0  0  0  0
  4  3  2  0  0  0  0
  4  8  1  0  0  0  0
  5  4  1  0  0  0  0
  6  2  1  0  0  0  0
M  END
$$$$
