           9
 
C             0.6724201958           -1.4470497613           -0.0265060725
C             1.1136316972           -0.1272998078            0.0788273493
C             0.0102856014            0.7522249471            0.2141302959
C            -1.0925425996           -0.0431868864            0.1895221119
O            -0.7267507351           -1.3413319728            0.0479069996
H             2.1552202275            0.1972291626            0.0613233373
H             0.0183760772            1.8324158054            0.3176746851
H            -2.1506414644            0.1769975133            0.2590152934
H            -1.3165836447           -2.0339500491           -0.1823376228
           9
 
C             0.6724201958           -1.4470497613           -0.0265060725
C             1.1136316972           -0.1272998078            0.0788273493
C             0.0102856014            0.7522249471            0.2141302959
C            -1.0925425996           -0.0431868864            0.1895221119
O            -0.7267507351           -1.3413319728            0.0479069996
H             2.1552202275            0.1972291626            0.0613233373
H             0.0183760772            1.8324158054            0.3176746851
H            -2.1506414644            0.1769975133            0.2590152934
H            -0.6353466622           -1.2559399083            0.1987188889
           9
 
C             0.6724201958           -1.4470497613           -0.0265060725
C             1.1136316972           -0.1272998078            0.0788273493
C             0.0102856014            0.7522249471            0.2141302959
C            -1.0925425996           -0.0431868864            0.1895221119
O            -0.7267507351           -1.3413319728            0.0479069996
H             2.1552202275            0.1972291626            0.0613233373
H             0.0183760772            1.8324158054            0.3176746851
H            -2.1506414644            0.1769975133            0.2590152934
H            -0.5574189307            0.3727613211           -0.0752337508
           9
 
C             0.6724201958           -1.4470497613           -0.0265060725
C             1.1136316972           -0.1272998078            0.0788273493
C             0.0102856014            0.7522249471            0.2141302959
C            -1.0925425996           -0.0431868864            0.1895221119
O            -0.7267507351           -1.3413319728            0.0479069996
H             2.1552202275            0.1972291626            0.0613233373
H             0.0183760772            1.8324158054            0.3176746851
H            -2.1506414644            0.1769975133            0.2590152934
H            -0.5289930620            0.3180599505            0.4797562648
           9
 
C             0.6724201958           -1.4470497613           -0.0265060725
C             1.1136316972           -0.1272998078            0.0788273493
C             0.0102856014            0.7522249471            0.2141302959
C            -1.0925425996           -0.0431868864            0.1895221119
O            -0.7267507351           -1.3413319728            0.0479069996
H             2.1552202275            0.1972291626            0.0613233373
H             0.0183760772            1.8324158054            0.3176746851
H            -2.1506414644            0.1769975133            0.2590152934
H             0.8561525349           -0.5841604381           -0.2105498521
           9
 
C             0.6724201958           -1.4470497613           -0.0265060725
C             1.1136316972           -0.1272998078            0.0788273493
C             0.0102856014            0.7522249471            0.2141302959
C            -1.0925425996           -0.0431868864            0.1895221119
O            -0.7267507351           -1.3413319728            0.0479069996
H             2.1552202275            0.1972291626            0.0613233373
H             0.0183760772            1.8324158054            0.3176746851
H            -2.1506414644            0.1769975133            0.2590152934
H             0.8750130734           -0.6231079332            0.3031227964
           9
 
C             0.6724201958           -1.4470497613           -0.0265060725
C             1.1136316972           -0.1272998078            0.0788273493
C             0.0102856014            0.7522249471            0.2141302959
C            -1.0925425996           -0.0431868864            0.1895221119
O            -0.7267507351           -1.3413319728            0.0479069996
H             2.1552202275            0.1972291626            0.0613233373
H             0.0183760772            1.8324158054            0.3176746851
H            -2.1506414644            0.1769975133            0.2590152934
H            -0.6471200166           -1.2293650573           -0.0917822700
           9
 
C             0.6724201958           -1.4470497613           -0.0265060725
C             1.1136316972           -0.1272998078            0.0788273493
C             0.0102856014            0.7522249471            0.2141302959
C            -1.0925425996           -0.0431868864            0.1895221119
O            -0.7267507351           -1.3413319728            0.0479069996
H             2.1552202275            0.1972291626            0.0613233373
H             0.0183760772            1.8324158054            0.3176746851
H            -2.1506414644            0.1769975133            0.2590152934
H            -0.9181188060           -1.5584026313            0.0954267564
           9
 
C             0.6724201958           -1.4470497613           -0.0265060725
C             1.1136316972           -0.1272998078            0.0788273493
C             0.0102856014            0.7522249471            0.2141302959
C            -1.0925425996           -0.0431868864            0.1895221119
O            -0.7267507351           -1.3413319728            0.0479069996
H             2.1552202275            0.1972291626            0.0613233373
H             0.0183760772            1.8324158054            0.3176746851
H            -2.1506414644            0.1769975133            0.2590152934
H            -0.8574477187           -1.2872789416           -0.0876927860
           9
 
C             0.6724201958           -1.4470497613           -0.0265060725
C             1.1136316972           -0.1272998078            0.0788273493
C             0.0102856014            0.7522249471            0.2141302959
C            -1.0925425996           -0.0431868864            0.1895221119
O            -0.7267507351           -1.3413319728            0.0479069996
H             2.1552202275            0.1972291626            0.0613233373
H             0.0183760772            1.8324158054            0.3176746851
H            -2.1506414644            0.1769975133            0.2590152934
H            -0.4534223710           -1.4407573166            0.0854002392
           9
 
C             0.6724201958           -1.4470497613           -0.0265060725
C             1.1136316972           -0.1272998078            0.0788273493
C             0.0102856014            0.7522249471            0.2141302959
C            -1.0925425996           -0.0431868864            0.1895221119
O            -0.7267507351           -1.3413319728            0.0479069996
H             2.1552202275            0.1972291626            0.0613233373
H             0.0183760772            1.8324158054            0.3176746851
H            -2.1506414644            0.1769975133            0.2590152934
H             0.5498146822            0.3764959614           -0.1288186391
           9
 
C             0.6724201958           -1.4470497613           -0.0265060725
C             1.1136316972           -0.1272998078            0.0788273493
C             0.0102856014            0.7522249471            0.2141302959
C            -1.0925425996           -0.0431868864            0.1895221119
O            -0.7267507351           -1.3413319728            0.0479069996
H             2.1552202275            0.1972291626            0.0613233373
H             0.0183760772            1.8324158054            0.3176746851
H            -2.1506414644            0.1769975133            0.2590152934
H             0.5782395130            0.3252107118            0.4264975274
