          19
 
C            -3.4520392894           -0.2066927217            0.1547842647
C            -2.0546806868            0.3128527815            0.1637721383
C            -0.8963624858           -0.3708329747            0.0285974283
C             0.2795531060            0.4423003163            0.0854649403
C             1.6229655655           -0.0564760189           -0.0325477845
N             2.6807767548            0.7728645954           -0.0057039683
N             3.7288969905           -0.0791593941           -0.1415027515
C             3.4628856536           -1.4159012978           -0.2555766310
C             2.0534923093           -1.3911646589           -0.1818239027
C            -0.0437178501            1.7545288427            0.2678286370
S            -1.7563491374            2.0196462732            0.3723478119
H            -4.0410835172            0.2774791468           -0.6252432155
H            -3.4464601036           -1.2800554066           -0.0257713816
H            -3.9440317654           -0.0154108471            1.1097815059
H            -0.8621755821           -1.4381718013           -0.1118511021
H             4.6515214998            0.3356943495           -0.1504470819
H             1.3969144544           -2.2523218223           -0.2289696907
H             0.6198950842            2.5908196379            0.3483127833
H            -2.1083556170            2.5190050583           -0.8611737737
          19
 
C            -3.4520392894           -0.2066927217            0.1547842647
C            -2.0546806868            0.3128527815            0.1637721383
C            -0.8963624858           -0.3708329747            0.0285974283
C             0.2795531060            0.4423003163            0.0854649403
C             1.6229655655           -0.0564760189           -0.0325477845
N             2.6807767548            0.7728645954           -0.0057039683
N             3.7288969905           -0.0791593941           -0.1415027515
C             3.4628856536           -1.4159012978           -0.2555766310
C             2.0534923093           -1.3911646589           -0.1818239027
C            -0.0437178501            1.7545288427            0.2678286370
S            -1.7563491374            2.0196462732            0.3723478119
H            -4.0410835172            0.2774791468           -0.6252432155
H            -3.4464601036           -1.2800554066           -0.0257713816
H            -3.9440317654           -0.0154108471            1.1097815059
H            -0.8621755821           -1.4381718013           -0.1118511021
H             4.6515214998            0.3356943495           -0.1504470819
H             1.3969144544           -2.2523218223           -0.2289696907
H             0.6198950842            2.5908196379            0.3483127833
H            -2.0027643807            2.1866965604            1.7158764956
          19
 
C            -3.4520392894           -0.2066927217            0.1547842647
C            -2.0546806868            0.3128527815            0.1637721383
C            -0.8963624858           -0.3708329747            0.0285974283
C             0.2795531060            0.4423003163            0.0854649403
C             1.6229655655           -0.0564760189           -0.0325477845
N             2.6807767548            0.7728645954           -0.0057039683
N             3.7288969905           -0.0791593941           -0.1415027515
C             3.4628856536           -1.4159012978           -0.2555766310
C             2.0534923093           -1.3911646589           -0.1818239027
C            -0.0437178501            1.7545288427            0.2678286370
S            -1.7563491374            2.0196462732            0.3723478119
H            -4.0410835172            0.2774791468           -0.6252432155
H            -3.4464601036           -1.2800554066           -0.0257713816
H            -3.9440317654           -0.0154108471            1.1097815059
H            -0.8621755821           -1.4381718013           -0.1118511021
H             4.6515214998            0.3356943495           -0.1504470819
H             1.3969144544           -2.2523218223           -0.2289696907
H             0.6198950842            2.5908196379            0.3483127833
H            -1.4445283033           -0.0381690616            0.3747953903
          19
 
C            -3.4520392894           -0.2066927217            0.1547842647
C            -2.0546806868            0.3128527815            0.1637721383
C            -0.8963624858           -0.3708329747            0.0285974283
C             0.2795531060            0.4423003163            0.0854649403
C             1.6229655655           -0.0564760189           -0.0325477845
N             2.6807767548            0.7728645954           -0.0057039683
N             3.7288969905           -0.0791593941           -0.1415027515
C             3.4628856536           -1.4159012978           -0.2555766310
C             2.0534923093           -1.3911646589           -0.1818239027
C            -0.0437178501            1.7545288427            0.2678286370
S            -1.7563491374            2.0196462732            0.3723478119
H            -4.0410835172            0.2774791468           -0.6252432155
H            -3.4464601036           -1.2800554066           -0.0257713816
H            -3.9440317654           -0.0154108471            1.1097815059
H            -0.8621755821           -1.4381718013           -0.1118511021
H             4.6515214998            0.3356943495           -0.1504470819
H             1.3969144544           -2.2523218223           -0.2289696907
H             0.6198950842            2.5908196379            0.3483127833
H            -1.4669768568            0.0334884075           -0.1771171052
          19
 
C            -3.4520392894           -0.2066927217            0.1547842647
C            -2.0546806868            0.3128527815            0.1637721383
C            -0.8963624858           -0.3708329747            0.0285974283
C             0.2795531060            0.4423003163            0.0854649403
C             1.6229655655           -0.0564760189           -0.0325477845
N             2.6807767548            0.7728645954           -0.0057039683
N             3.7288969905           -0.0791593941           -0.1415027515
C             3.4628856536           -1.4159012978           -0.2555766310
C             2.0534923093           -1.3911646589           -0.1818239027
C            -0.0437178501            1.7545288427            0.2678286370
S            -1.7563491374            2.0196462732            0.3723478119
H            -4.0410835172            0.2774791468           -0.6252432155
H            -3.4464601036           -1.2800554066           -0.0257713816
H            -3.9440317654           -0.0154108471            1.1097815059
H            -0.8621755821           -1.4381718013           -0.1118511021
H             4.6515214998            0.3356943495           -0.1504470819
H             1.3969144544           -2.2523218223           -0.2289696907
H             0.6198950842            2.5908196379            0.3483127833
H             0.0833884392            1.0584843406            0.4490611500
          19
 
C            -3.4520392894           -0.2066927217            0.1547842647
C            -2.0546806868            0.3128527815            0.1637721383
C            -0.8963624858           -0.3708329747            0.0285974283
C             0.2795531060            0.4423003163            0.0854649403
C             1.6229655655           -0.0564760189           -0.0325477845
N             2.6807767548            0.7728645954           -0.0057039683
N             3.7288969905           -0.0791593941           -0.1415027515
C             3.4628856536           -1.4159012978           -0.2555766310
C             2.0534923093           -1.3911646589           -0.1818239027
C            -0.0437178501            1.7545288427            0.2678286370
S            -1.7563491374            2.0196462732            0.3723478119
H            -4.0410835172            0.2774791468           -0.6252432155
H            -3.4464601036           -1.2800554066           -0.0257713816
H            -3.9440317654           -0.0154108471            1.1097815059
H            -0.8621755821           -1.4381718013           -0.1118511021
H             4.6515214998            0.3356943495           -0.1504470819
H             1.3969144544           -2.2523218223           -0.2289696907
H             0.6198950842            2.5908196379            0.3483127833
H             0.0602306613            1.1285419316           -0.0934811068
          19
 
C            -3.4520392894           -0.2066927217            0.1547842647
C            -2.0546806868            0.3128527815            0.1637721383
C            -0.8963624858           -0.3708329747            0.0285974283
C             0.2795531060            0.4423003163            0.0854649403
C             1.6229655655           -0.0564760189           -0.0325477845
N             2.6807767548            0.7728645954           -0.0057039683
N             3.7288969905           -0.0791593941           -0.1415027515
C             3.4628856536           -1.4159012978           -0.2555766310
C             2.0534923093           -1.3911646589           -0.1818239027
C            -0.0437178501            1.7545288427            0.2678286370
S            -1.7563491374            2.0196462732            0.3723478119
H            -4.0410835172            0.2774791468           -0.6252432155
H            -3.4464601036           -1.2800554066           -0.0257713816
H            -3.9440317654           -0.0154108471            1.1097815059
H            -0.8621755821           -1.4381718013           -0.1118511021
H             4.6515214998            0.3356943495           -0.1504470819
H             1.3969144544           -2.2523218223           -0.2289696907
H             0.6198950842            2.5908196379            0.3483127833
H             3.6160395254           -0.5020318696            0.0564046046
          19
 
C            -3.4520392894           -0.2066927217            0.1547842647
C            -2.0546806868            0.3128527815            0.1637721383
C            -0.8963624858           -0.3708329747            0.0285974283
C             0.2795531060            0.4423003163            0.0854649403
C             1.6229655655           -0.0564760189           -0.0325477845
N             2.6807767548            0.7728645954           -0.0057039683
N             3.7288969905           -0.0791593941           -0.1415027515
C             3.4628856536           -1.4159012978           -0.2555766310
C             2.0534923093           -1.3911646589           -0.1818239027
C            -0.0437178501            1.7545288427            0.2678286370
S            -1.7563491374            2.0196462732            0.3723478119
H            -4.0410835172            0.2774791468           -0.6252432155
H            -3.4464601036           -1.2800554066           -0.0257713816
H            -3.9440317654           -0.0154108471            1.1097815059
H            -0.8621755821           -1.4381718013           -0.1118511021
H             4.6515214998            0.3356943495           -0.1504470819
H             1.3969144544           -2.2523218223           -0.2289696907
H             0.6198950842            2.5908196379            0.3483127833
H             2.2268831455            0.3918582224            0.2192447502
          19
 
C            -3.4520392894           -0.2066927217            0.1547842647
C            -2.0546806868            0.3128527815            0.1637721383
C            -0.8963624858           -0.3708329747            0.0285974283
C             0.2795531060            0.4423003163            0.0854649403
C             1.6229655655           -0.0564760189           -0.0325477845
N             2.6807767548            0.7728645954           -0.0057039683
N             3.7288969905           -0.0791593941           -0.1415027515
C             3.4628856536           -1.4159012978           -0.2555766310
C             2.0534923093           -1.3911646589           -0.1818239027
C            -0.0437178501            1.7545288427            0.2678286370
S            -1.7563491374            2.0196462732            0.3723478119
H            -4.0410835172            0.2774791468           -0.6252432155
H            -3.4464601036           -1.2800554066           -0.0257713816
H            -3.9440317654           -0.0154108471            1.1097815059
H            -0.8621755821           -1.4381718013           -0.1118511021
H             4.6515214998            0.3356943495           -0.1504470819
H             1.3969144544           -2.2523218223           -0.2289696907
H             0.6198950842            2.5908196379            0.3483127833
H             2.2098515529            0.4338328544           -0.2610337893
          19
 
C            -3.4520392894           -0.2066927217            0.1547842647
C            -2.0546806868            0.3128527815            0.1637721383
C            -0.8963624858           -0.3708329747            0.0285974283
C             0.2795531060            0.4423003163            0.0854649403
C             1.6229655655           -0.0564760189           -0.0325477845
N             2.6807767548            0.7728645954           -0.0057039683
N             3.7288969905           -0.0791593941           -0.1415027515
C             3.4628856536           -1.4159012978           -0.2555766310
C             2.0534923093           -1.3911646589           -0.1818239027
C            -0.0437178501            1.7545288427            0.2678286370
S            -1.7563491374            2.0196462732            0.3723478119
H            -4.0410835172            0.2774791468           -0.6252432155
H            -3.4464601036           -1.2800554066           -0.0257713816
H            -3.9440317654           -0.0154108471            1.1097815059
H            -0.8621755821           -1.4381718013           -0.1118511021
H             4.6515214998            0.3356943495           -0.1504470819
H             1.3969144544           -2.2523218223           -0.2289696907
H             0.6198950842            2.5908196379            0.3483127833
H             3.5726531055           -0.3789531002           -0.4039388029
          19
 
C            -3.4520392894           -0.2066927217            0.1547842647
C            -2.0546806868            0.3128527815            0.1637721383
C            -0.8963624858           -0.3708329747            0.0285974283
C             0.2795531060            0.4423003163            0.0854649403
C             1.6229655655           -0.0564760189           -0.0325477845
N             2.6807767548            0.7728645954           -0.0057039683
N             3.7288969905           -0.0791593941           -0.1415027515
C             3.4628856536           -1.4159012978           -0.2555766310
C             2.0534923093           -1.3911646589           -0.1818239027
C            -0.0437178501            1.7545288427            0.2678286370
S            -1.7563491374            2.0196462732            0.3723478119
H            -4.0410835172            0.2774791468           -0.6252432155
H            -3.4464601036           -1.2800554066           -0.0257713816
H            -3.9440317654           -0.0154108471            1.1097815059
H            -0.8621755821           -1.4381718013           -0.1118511021
H             4.6515214998            0.3356943495           -0.1504470819
H             1.3969144544           -2.2523218223           -0.2289696907
H             0.6198950842            2.5908196379            0.3483127833
H             2.7913386565            1.7426667855            0.0819448606
          19
 
C            -3.4520392894           -0.2066927217            0.1547842647
C            -2.0546806868            0.3128527815            0.1637721383
C            -0.8963624858           -0.3708329747            0.0285974283
C             0.2795531060            0.4423003163            0.0854649403
C             1.6229655655           -0.0564760189           -0.0325477845
N             2.6807767548            0.7728645954           -0.0057039683
N             3.7288969905           -0.0791593941           -0.1415027515
C             3.4628856536           -1.4159012978           -0.2555766310
C             2.0534923093           -1.3911646589           -0.1818239027
C            -0.0437178501            1.7545288427            0.2678286370
S            -1.7563491374            2.0196462732            0.3723478119
H            -4.0410835172            0.2774791468           -0.6252432155
H            -3.4464601036           -1.2800554066           -0.0257713816
H            -3.9440317654           -0.0154108471            1.1097815059
H            -0.8621755821           -1.4381718013           -0.1118511021
H             4.6515214998            0.3356943495           -0.1504470819
H             1.3969144544           -2.2523218223           -0.2289696907
H             0.6198950842            2.5908196379            0.3483127833
H             2.2037448535           -0.9592100015           -0.2613580130
          19
 
C            -3.4520392894           -0.2066927217            0.1547842647
C            -2.0546806868            0.3128527815            0.1637721383
C            -0.8963624858           -0.3708329747            0.0285974283
C             0.2795531060            0.4423003163            0.0854649403
C             1.6229655655           -0.0564760189           -0.0325477845
N             2.6807767548            0.7728645954           -0.0057039683
N             3.7288969905           -0.0791593941           -0.1415027515
C             3.4628856536           -1.4159012978           -0.2555766310
C             2.0534923093           -1.3911646589           -0.1818239027
C            -0.0437178501            1.7545288427            0.2678286370
S            -1.7563491374            2.0196462732            0.3723478119
H            -4.0410835172            0.2774791468           -0.6252432155
H            -3.4464601036           -1.2800554066           -0.0257713816
H            -3.9440317654           -0.0154108471            1.1097815059
H            -0.8621755821           -1.4381718013           -0.1118511021
H             4.6515214998            0.3356943495           -0.1504470819
H             1.3969144544           -2.2523218223           -0.2289696907
H             0.6198950842            2.5908196379            0.3483127833
H             3.3628314389            0.1670621860           -0.3314926695
          19
 
C            -3.4520392894           -0.2066927217            0.1547842647
C            -2.0546806868            0.3128527815            0.1637721383
C            -0.8963624858           -0.3708329747            0.0285974283
C             0.2795531060            0.4423003163            0.0854649403
C             1.6229655655           -0.0564760189           -0.0325477845
N             2.6807767548            0.7728645954           -0.0057039683
N             3.7288969905           -0.0791593941           -0.1415027515
C             3.4628856536           -1.4159012978           -0.2555766310
C             2.0534923093           -1.3911646589           -0.1818239027
C            -0.0437178501            1.7545288427            0.2678286370
S            -1.7563491374            2.0196462732            0.3723478119
H            -4.0410835172            0.2774791468           -0.6252432155
H            -3.4464601036           -1.2800554066           -0.0257713816
H            -3.9440317654           -0.0154108471            1.1097815059
H            -0.8621755821           -1.4381718013           -0.1118511021
H             4.6515214998            0.3356943495           -0.1504470819
H             1.3969144544           -2.2523218223           -0.2289696907
H             0.6198950842            2.5908196379            0.3483127833
H             3.4231521646            0.0502295761            0.1285707761
          19
 
C            -3.4520392894           -0.2066927217            0.1547842647
C            -2.0546806868            0.3128527815            0.1637721383
C            -0.8963624858           -0.3708329747            0.0285974283
C             0.2795531060            0.4423003163            0.0854649403
C             1.6229655655           -0.0564760189           -0.0325477845
N             2.6807767548            0.7728645954           -0.0057039683
N             3.7288969905           -0.0791593941           -0.1415027515
C             3.4628856536           -1.4159012978           -0.2555766310
C             2.0534923093           -1.3911646589           -0.1818239027
C            -0.0437178501            1.7545288427            0.2678286370
S            -1.7563491374            2.0196462732            0.3723478119
H            -4.0410835172            0.2774791468           -0.6252432155
H            -3.4464601036           -1.2800554066           -0.0257713816
H            -3.9440317654           -0.0154108471            1.1097815059
H            -0.8621755821           -1.4381718013           -0.1118511021
H             4.6515214998            0.3356943495           -0.1504470819
H             1.3969144544           -2.2523218223           -0.2289696907
H             0.6198950842            2.5908196379            0.3483127833
H             1.7872435202           -0.7656422310           -0.3475329225
          19
 
C            -3.4520392894           -0.2066927217            0.1547842647
C            -2.0546806868            0.3128527815            0.1637721383
C            -0.8963624858           -0.3708329747            0.0285974283
C             0.2795531060            0.4423003163            0.0854649403
C             1.6229655655           -0.0564760189           -0.0325477845
N             2.6807767548            0.7728645954           -0.0057039683
N             3.7288969905           -0.0791593941           -0.1415027515
C             3.4628856536           -1.4159012978           -0.2555766310
C             2.0534923093           -1.3911646589           -0.1818239027
C            -0.0437178501            1.7545288427            0.2678286370
S            -1.7563491374            2.0196462732            0.3723478119
H            -4.0410835172            0.2774791468           -0.6252432155
H            -3.4464601036           -1.2800554066           -0.0257713816
H            -3.9440317654           -0.0154108471            1.1097815059
H            -0.8621755821           -1.4381718013           -0.1118511021
H             4.6515214998            0.3356943495           -0.1504470819
H             1.3969144544           -2.2523218223           -0.2289696907
H             0.6198950842            2.5908196379            0.3483127833
H             1.8189350603           -0.8125945041            0.1315396652
          19
 
C            -3.4520392894           -0.2066927217            0.1547842647
C            -2.0546806868            0.3128527815            0.1637721383
C            -0.8963624858           -0.3708329747            0.0285974283
C             0.2795531060            0.4423003163            0.0854649403
C             1.6229655655           -0.0564760189           -0.0325477845
N             2.6807767548            0.7728645954           -0.0057039683
N             3.7288969905           -0.0791593941           -0.1415027515
C             3.4628856536           -1.4159012978           -0.2555766310
C             2.0534923093           -1.3911646589           -0.1818239027
C            -0.0437178501            1.7545288427            0.2678286370
S            -1.7563491374            2.0196462732            0.3723478119
H            -4.0410835172            0.2774791468           -0.6252432155
H            -3.4464601036           -1.2800554066           -0.0257713816
H            -3.9440317654           -0.0154108471            1.1097815059
H            -0.8621755821           -1.4381718013           -0.1118511021
H             4.6515214998            0.3356943495           -0.1504470819
H             1.3969144544           -2.2523218223           -0.2289696907
H             0.6198950842            2.5908196379            0.3483127833
H             2.4196633822           -1.1320238613           -0.0624456791
          19
 
C            -3.4520392894           -0.2066927217            0.1547842647
C            -2.0546806868            0.3128527815            0.1637721383
C            -0.8963624858           -0.3708329747            0.0285974283
C             0.2795531060            0.4423003163            0.0854649403
C             1.6229655655           -0.0564760189           -0.0325477845
N             2.6807767548            0.7728645954           -0.0057039683
N             3.7288969905           -0.0791593941           -0.1415027515
C             3.4628856536           -1.4159012978           -0.2555766310
C             2.0534923093           -1.3911646589           -0.1818239027
C            -0.0437178501            1.7545288427            0.2678286370
S            -1.7563491374            2.0196462732            0.3723478119
H            -4.0410835172            0.2774791468           -0.6252432155
H            -3.4464601036           -1.2800554066           -0.0257713816
H            -3.9440317654           -0.0154108471            1.1097815059
H            -0.8621755821           -1.4381718013           -0.1118511021
H             4.6515214998            0.3356943495           -0.1504470819
H             1.3969144544           -2.2523218223           -0.2289696907
H             0.6198950842            2.5908196379            0.3483127833
H             2.7766917407           -1.4546257084           -0.3065461453
