energy: -4.655858528354 gnorm: 0.000737786330 xtb: 6.4.1 (afa7bdf)
 OpenBabel11022218133D

 18 19  0  0  0  0  0  0  0  0999 V2000
    3.3305    0.9805   -0.3885 C   0  0  0  0  0  0  0  0  0  0  0  0
    2.0894    0.1716   -0.4302 C   0  0  0  0  0  0  0  0  0  0  0  0
    0.8768    0.5690    0.0359 C   0  0  0  0  0  0  0  0  0  0  0  0
   -0.1689   -0.4056   -0.1350 C   0  0  0  0  0  0  0  0  0  0  0  0
   -1.5614   -0.1820    0.3032 C   0  0  0  0  0  0  0  0  0  0  0  0
   -2.0018    0.9172    0.8958 N   0  0  0  0  0  0  0  0  0  0  0  0
   -3.3072    0.6578    1.1007 N   0  0  0  0  0  0  0  0  0  0  0  0
   -3.7328   -0.5558    0.6695 C   0  0  0  0  0  3  0  0  0  0  0  0
   -2.6477   -1.1310    0.1503 C   0  0  0  0  0  0  0  0  0  0  0  0
    0.2844   -1.5405   -0.7421 C   0  0  0  0  0  0  0  0  0  0  0  0
    1.9791   -1.4400   -1.1115 S   0  0  0  0  0  0  0  0  0  0  0  0
    3.5034    1.4832   -1.3459 H   0  0  0  0  0  0  0  0  0  0  0  0
    3.2796    1.7496    0.3896 H   0  0  0  0  0  0  0  0  0  0  0  0
    4.2020    0.3516   -0.1788 H   0  0  0  0  0  0  0  0  0  0  0  0
    0.7051    1.5312    0.4958 H   0  0  0  0  0  0  0  0  0  0  0  0
   -3.9205    1.3547    1.5586 H   0  0  0  0  0  0  0  0  0  0  0  0
   -2.5886   -2.1133   -0.2974 H   0  0  0  0  0  0  0  0  0  0  0  0
   -0.3213   -2.3983   -0.9699 H   0  0  0  0  0  0  0  0  0  0  0  0
  1 14  1  0  0  0  0
  1 13  1  0  0  0  0
  2  1  1  0  0  0  0
  2  3  2  0  0  0  0
  3 15  1  0  0  0  0
  4  3  1  0  0  0  0
  4  5  1  0  0  0  0
  5  6  2  0  0  0  0
  6  7  1  0  0  0  0
  7 16  1  0  0  0  0
  8  7  1  0  0  0  0
  9  5  1  0  0  0  0
  9  8  2  0  0  0  0
 10  4  2  0  0  0  0
 11 10  1  0  0  0  0
 11  2  1  0  0  0  0
 12  1  1  0  0  0  0
 17  9  1  0  0  0  0
 18 10  1  0  0  0  0
M  END
$$$$
