energy: -4.681070823637 gnorm: 0.000761339068 xtb: 6.4.1 (afa7bdf)
 OpenBabel11022218133D

 18 19  0  0  0  0  0  0  0  0999 V2000
    3.7715   -0.2743   -0.6211 C   0  0  0  0  0  0  0  0  0  0  0  0
    2.4608   -0.1237    0.0555 C   0  0  0  0  0  0  0  0  0  0  0  0
    1.2548   -0.2091   -0.4864 C   0  0  0  0  0  3  0  0  0  0  0  0
    0.1141   -0.0290    0.3198 C   0  0  0  0  0  0  0  0  0  0  0  0
   -1.2934   -0.1007   -0.1452 C   0  0  0  0  0  0  0  0  0  0  0  0
   -1.6722   -0.3460   -1.4006 N   0  0  0  0  0  0  0  0  0  0  0  0
   -3.0019   -0.3243   -1.3789 N   0  0  0  0  0  0  0  0  0  0  0  0
   -3.5223   -0.0677   -0.1254 C   0  0  0  0  0  0  0  0  0  0  0  0
   -2.4359    0.0794    0.6841 C   0  0  0  0  0  0  0  0  0  0  0  0
    0.4910    0.2231    1.6141 C   0  0  0  0  0  0  0  0  0  0  0  0
    2.2338    0.2284    1.7928 S   0  0  0  0  0  0  0  0  0  0  0  0
    4.5256   -0.6651    0.0696 H   0  0  0  0  0  0  0  0  0  0  0  0
    3.7021   -0.9656   -1.4665 H   0  0  0  0  0  0  0  0  0  0  0  0
    4.1286    0.6881   -1.0005 H   0  0  0  0  0  0  0  0  0  0  0  0
   -3.5613   -0.4863   -2.2278 H   0  0  0  0  0  0  0  0  0  0  0  0
   -4.5666   -0.0005    0.1446 H   0  0  0  0  0  0  0  0  0  0  0  0
   -2.4408    0.2905    1.7437 H   0  0  0  0  0  0  0  0  0  0  0  0
   -0.1880    0.3971    2.4284 H   0  0  0  0  0  0  0  0  0  0  0  0
  1  2  1  0  0  0  0
  1 12  1  0  0  0  0
  2 11  1  0  0  0  0
  3  2  2  0  0  0  0
  3  4  1  0  0  0  0
  4 10  2  0  0  0  0
  5  4  1  0  0  0  0
  5  9  1  0  0  0  0
  6  7  1  0  0  0  0
  6  5  2  0  0  0  0
  7  8  1  0  0  0  0
  8 16  1  0  0  0  0
  8  9  2  0  0  0  0
  9 17  1  0  0  0  0
 10 11  1  0  0  0  0
 10 18  1  0  0  0  0
 13  1  1  0  0  0  0
 14  1  1  0  0  0  0
 15  7  1  0  0  0  0
M  END
$$$$
