energy: -29.923464238563 gnorm: 0.000629121783 xtb: 6.4.1 (afa7bdf)
 OpenBabel11022218133D

 18 18  0  0  1  0  0  0  0  0999 V2000
    3.5769   -0.4003   -1.2719 C   0  0  0  0  0  0  0  0  0  0  0  0
    2.3527   -0.2343   -0.5097 C   0  0  0  0  0  0  0  0  0  0  0  0
    1.3301   -0.0940    0.1092 C   0  0  0  0  0  0  0  0  0  0  0  0
    0.1573    0.0796    0.8750 C   0  0  2  0  0  3  0  0  0  0  0  0
   -1.0990   -0.0452    0.1910 C   0  0  0  0  0  0  0  0  0  0  0  0
   -1.1775   -0.3384   -1.1101 N   0  0  0  0  0  0  0  0  0  0  0  0
   -2.4912   -0.3723   -1.4049 N   0  0  0  0  0  0  0  0  0  0  0  0
   -3.2623   -0.1070   -0.3239 C   0  0  0  0  0  0  0  0  0  0  0  0
   -2.4140    0.1090    0.7239 C   0  0  0  0  0  0  0  0  0  0  0  0
    0.2293    0.3586    2.2198 C   0  0  0  0  0  0  0  0  0  0  0  0
    1.6152    0.5323    3.1546 S   0  0  0  0  0  0  0  0  0  0  0  0
    4.3194   -0.9419   -0.6814 H   0  0  0  0  0  0  0  0  0  0  0  0
    3.3811   -0.9627   -2.1888 H   0  0  0  0  0  0  0  0  0  0  0  0
    3.9958    0.5725   -1.5436 H   0  0  0  0  0  0  0  0  0  0  0  0
   -2.7857   -0.5769   -2.3447 H   0  0  0  0  0  0  0  0  0  0  0  0
   -4.3349   -0.0938   -0.3890 H   0  0  0  0  0  0  0  0  0  0  0  0
   -2.6859    0.3462    1.7327 H   0  0  0  0  0  0  0  0  0  0  0  0
   -0.7073    0.4830    2.7618 H   0  0  0  0  0  0  0  0  0  0  0  0
  1 12  1  0  0  0  0
  1  2  1  0  0  0  0
  2  3  3  0  0  0  0
  4  3  1  6  0  0  0
  4 10  1  0  0  0  0
  5  9  1  0  0  0  0
  5  4  1  0  0  0  0
  6  5  2  0  0  0  0
  7  6  1  0  0  0  0
  7  8  1  0  0  0  0
  8  9  2  0  0  0  0
  9 17  1  0  0  0  0
 10 18  1  0  0  0  0
 10 11  2  0  0  0  0
 13  1  1  0  0  0  0
 14  1  1  0  0  0  0
 15  7  1  0  0  0  0
 16  8  1  0  0  0  0
M  END
$$$$
