          19
 
C             3.5768967537           -0.4003469576           -1.2718602557
C             2.3526917009           -0.2342985133           -0.5097476337
C             1.3300947072           -0.0940072556            0.1091947503
C             0.1572564276            0.0796456902            0.8750428006
C            -1.0990146815           -0.0452442943            0.1909665265
N            -1.1774563905           -0.3384063050           -1.1101015103
N            -2.4912252295           -0.3722728370           -1.4049402831
C            -3.2622598213           -0.1070438254           -0.3239226225
C            -2.4140315503            0.1090041175            0.7238915868
C             0.2293250038            0.3585756292            2.2198190917
S             1.6152451512            0.5323281061            3.1546341307
H             4.3194474200           -0.9419407695           -0.6814004137
H             3.3810904425           -0.9626614856           -2.1887622113
H             3.9957882144            0.5724957863           -1.5436016350
H            -2.7857178859           -0.5769146735           -2.3447373862
H            -4.3349434395           -0.0937684906           -0.3890279205
H            -2.6858803910            0.3462334245            1.7327467592
H            -0.7073054319            0.4829816535            2.7618072263
H            -2.7692407261            0.2639720661            0.1626614429
          19
 
C             3.5768967537           -0.4003469576           -1.2718602557
C             2.3526917009           -0.2342985133           -0.5097476337
C             1.3300947072           -0.0940072556            0.1091947503
C             0.1572564276            0.0796456902            0.8750428006
C            -1.0990146815           -0.0452442943            0.1909665265
N            -1.1774563905           -0.3384063050           -1.1101015103
N            -2.4912252295           -0.3722728370           -1.4049402831
C            -3.2622598213           -0.1070438254           -0.3239226225
C            -2.4140315503            0.1090041175            0.7238915868
C             0.2293250038            0.3585756292            2.2198190917
S             1.6152451512            0.5323281061            3.1546341307
H             4.3194474200           -0.9419407695           -0.6814004137
H             3.3810904425           -0.9626614856           -2.1887622113
H             3.9957882144            0.5724957863           -1.5436016350
H            -2.7857178859           -0.5769146735           -2.3447373862
H            -4.3349434395           -0.0937684906           -0.3890279205
H            -2.6858803910            0.3462334245            1.7327467592
H            -0.7073054319            0.4829816535            2.7618072263
H            -2.7713156035           -0.2602541290            0.2817873181
          19
 
C             3.5768967537           -0.4003469576           -1.2718602557
C             2.3526917009           -0.2342985133           -0.5097476337
C             1.3300947072           -0.0940072556            0.1091947503
C             0.1572564276            0.0796456902            0.8750428006
C            -1.0990146815           -0.0452442943            0.1909665265
N            -1.1774563905           -0.3384063050           -1.1101015103
N            -2.4912252295           -0.3722728370           -1.4049402831
C            -3.2622598213           -0.1070438254           -0.3239226225
C            -2.4140315503            0.1090041175            0.7238915868
C             0.2293250038            0.3585756292            2.2198190917
S             1.6152451512            0.5323281061            3.1546341307
H             4.3194474200           -0.9419407695           -0.6814004137
H             3.3810904425           -0.9626614856           -2.1887622113
H             3.9957882144            0.5724957863           -1.5436016350
H            -2.7857178859           -0.5769146735           -2.3447373862
H            -4.3349434395           -0.0937684906           -0.3890279205
H            -2.6858803910            0.3462334245            1.7327467592
H            -0.7073054319            0.4829816535            2.7618072263
H            -1.1736301819            0.0305243836           -0.5783346856
          19
 
C             3.5768967537           -0.4003469576           -1.2718602557
C             2.3526917009           -0.2342985133           -0.5097476337
C             1.3300947072           -0.0940072556            0.1091947503
C             0.1572564276            0.0796456902            0.8750428006
C            -1.0990146815           -0.0452442943            0.1909665265
N            -1.1774563905           -0.3384063050           -1.1101015103
N            -2.4912252295           -0.3722728370           -1.4049402831
C            -3.2622598213           -0.1070438254           -0.3239226225
C            -2.4140315503            0.1090041175            0.7238915868
C             0.2293250038            0.3585756292            2.2198190917
S             1.6152451512            0.5323281061            3.1546341307
H             4.3194474200           -0.9419407695           -0.6814004137
H             3.3810904425           -0.9626614856           -2.1887622113
H             3.9957882144            0.5724957863           -1.5436016350
H            -2.7857178859           -0.5769146735           -2.3447373862
H            -4.3349434395           -0.0937684906           -0.3890279205
H            -2.6858803910            0.3462334245            1.7327467592
H            -0.7073054319            0.4829816535            2.7618072263
H            -2.4879263412           -0.4313933493           -1.1534139099
          19
 
C             3.5768967537           -0.4003469576           -1.2718602557
C             2.3526917009           -0.2342985133           -0.5097476337
C             1.3300947072           -0.0940072556            0.1091947503
C             0.1572564276            0.0796456902            0.8750428006
C            -1.0990146815           -0.0452442943            0.1909665265
N            -1.1774563905           -0.3384063050           -1.1101015103
N            -2.4912252295           -0.3722728370           -1.4049402831
C            -3.2622598213           -0.1070438254           -0.3239226225
C            -2.4140315503            0.1090041175            0.7238915868
C             0.2293250038            0.3585756292            2.2198190917
S             1.6152451512            0.5323281061            3.1546341307
H             4.3194474200           -0.9419407695           -0.6814004137
H             3.3810904425           -0.9626614856           -2.1887622113
H             3.9957882144            0.5724957863           -1.5436016350
H            -2.7857178859           -0.5769146735           -2.3447373862
H            -4.3349434395           -0.0937684906           -0.3890279205
H            -2.6858803910            0.3462334245            1.7327467592
H            -0.7073054319            0.4829816535            2.7618072263
H            -1.1891329829           -0.4442973808           -0.4678435549
          19
 
C             3.5768967537           -0.4003469576           -1.2718602557
C             2.3526917009           -0.2342985133           -0.5097476337
C             1.3300947072           -0.0940072556            0.1091947503
C             0.1572564276            0.0796456902            0.8750428006
C            -1.0990146815           -0.0452442943            0.1909665265
N            -1.1774563905           -0.3384063050           -1.1101015103
N            -2.4912252295           -0.3722728370           -1.4049402831
C            -3.2622598213           -0.1070438254           -0.3239226225
C            -2.4140315503            0.1090041175            0.7238915868
C             0.2293250038            0.3585756292            2.2198190917
S             1.6152451512            0.5323281061            3.1546341307
H             4.3194474200           -0.9419407695           -0.6814004137
H             3.3810904425           -0.9626614856           -2.1887622113
H             3.9957882144            0.5724957863           -1.5436016350
H            -2.7857178859           -0.5769146735           -2.3447373862
H            -4.3349434395           -0.0937684906           -0.3890279205
H            -2.6858803910            0.3462334245            1.7327467592
H            -0.7073054319            0.4829816535            2.7618072263
H             0.1954930924            0.4304066851            1.3061238148
          19
 
C             3.5768967537           -0.4003469576           -1.2718602557
C             2.3526917009           -0.2342985133           -0.5097476337
C             1.3300947072           -0.0940072556            0.1091947503
C             0.1572564276            0.0796456902            0.8750428006
C            -1.0990146815           -0.0452442943            0.1909665265
N            -1.1774563905           -0.3384063050           -1.1101015103
N            -2.4912252295           -0.3722728370           -1.4049402831
C            -3.2622598213           -0.1070438254           -0.3239226225
C            -2.4140315503            0.1090041175            0.7238915868
C             0.2293250038            0.3585756292            2.2198190917
S             1.6152451512            0.5323281061            3.1546341307
H             4.3194474200           -0.9419407695           -0.6814004137
H             3.3810904425           -0.9626614856           -2.1887622113
H             3.9957882144            0.5724957863           -1.5436016350
H            -2.7857178859           -0.5769146735           -2.3447373862
H            -4.3349434395           -0.0937684906           -0.3890279205
H            -2.6858803910            0.3462334245            1.7327467592
H            -0.7073054319            0.4829816535            2.7618072263
H             0.1871211861           -0.0716397381            1.4066696617
          19
 
C             3.5768967537           -0.4003469576           -1.2718602557
C             2.3526917009           -0.2342985133           -0.5097476337
C             1.3300947072           -0.0940072556            0.1091947503
C             0.1572564276            0.0796456902            0.8750428006
C            -1.0990146815           -0.0452442943            0.1909665265
N            -1.1774563905           -0.3384063050           -1.1101015103
N            -2.4912252295           -0.3722728370           -1.4049402831
C            -3.2622598213           -0.1070438254           -0.3239226225
C            -2.4140315503            0.1090041175            0.7238915868
C             0.2293250038            0.3585756292            2.2198190917
S             1.6152451512            0.5323281061            3.1546341307
H             4.3194474200           -0.9419407695           -0.6814004137
H             3.3810904425           -0.9626614856           -2.1887622113
H             3.9957882144            0.5724957863           -1.5436016350
H            -2.7857178859           -0.5769146735           -2.3447373862
H            -4.3349434395           -0.0937684906           -0.3890279205
H            -2.6858803910            0.3462334245            1.7327467592
H            -0.7073054319            0.4829816535            2.7618072263
H             1.6814015374           -0.2413917717           -0.4624285535
          19
 
C             3.5768967537           -0.4003469576           -1.2718602557
C             2.3526917009           -0.2342985133           -0.5097476337
C             1.3300947072           -0.0940072556            0.1091947503
C             0.1572564276            0.0796456902            0.8750428006
C            -1.0990146815           -0.0452442943            0.1909665265
N            -1.1774563905           -0.3384063050           -1.1101015103
N            -2.4912252295           -0.3722728370           -1.4049402831
C            -3.2622598213           -0.1070438254           -0.3239226225
C            -2.4140315503            0.1090041175            0.7238915868
C             0.2293250038            0.3585756292            2.2198190917
S             1.6152451512            0.5323281061            3.1546341307
H             4.3194474200           -0.9419407695           -0.6814004137
H             3.3810904425           -0.9626614856           -2.1887622113
H             3.9957882144            0.5724957863           -1.5436016350
H            -2.7857178859           -0.5769146735           -2.3447373862
H            -4.3349434395           -0.0937684906           -0.3890279205
H            -2.6858803910            0.3462334245            1.7327467592
H            -0.7073054319            0.4829816535            2.7618072263
H             1.9220831027            0.1356788821           -0.1331795018
          19
 
C             3.5768967537           -0.4003469576           -1.2718602557
C             2.3526917009           -0.2342985133           -0.5097476337
C             1.3300947072           -0.0940072556            0.1091947503
C             0.1572564276            0.0796456902            0.8750428006
C            -1.0990146815           -0.0452442943            0.1909665265
N            -1.1774563905           -0.3384063050           -1.1101015103
N            -2.4912252295           -0.3722728370           -1.4049402831
C            -3.2622598213           -0.1070438254           -0.3239226225
C            -2.4140315503            0.1090041175            0.7238915868
C             0.2293250038            0.3585756292            2.2198190917
S             1.6152451512            0.5323281061            3.1546341307
H             4.3194474200           -0.9419407695           -0.6814004137
H             3.3810904425           -0.9626614856           -2.1887622113
H             3.9957882144            0.5724957863           -1.5436016350
H            -2.7857178859           -0.5769146735           -2.3447373862
H            -4.3349434395           -0.0937684906           -0.3890279205
H            -2.6858803910            0.3462334245            1.7327467592
H            -0.7073054319            0.4829816535            2.7618072263
H             1.9401864064           -0.3844142843            0.0080604904
          19
 
C             3.5768967537           -0.4003469576           -1.2718602557
C             2.3526917009           -0.2342985133           -0.5097476337
C             1.3300947072           -0.0940072556            0.1091947503
C             0.1572564276            0.0796456902            0.8750428006
C            -1.0990146815           -0.0452442943            0.1909665265
N            -1.1774563905           -0.3384063050           -1.1101015103
N            -2.4912252295           -0.3722728370           -1.4049402831
C            -3.2622598213           -0.1070438254           -0.3239226225
C            -2.4140315503            0.1090041175            0.7238915868
C             0.2293250038            0.3585756292            2.2198190917
S             1.6152451512            0.5323281061            3.1546341307
H             4.3194474200           -0.9419407695           -0.6814004137
H             3.3810904425           -0.9626614856           -2.1887622113
H             3.9957882144            0.5724957863           -1.5436016350
H            -2.7857178859           -0.5769146735           -2.3447373862
H            -4.3349434395           -0.0937684906           -0.3890279205
H            -2.6858803910            0.3462334245            1.7327467592
H            -0.7073054319            0.4829816535            2.7618072263
H             1.2082625449            0.8564592457            4.6974620960
          19
 
C             3.5768967537           -0.4003469576           -1.2718602557
C             2.3526917009           -0.2342985133           -0.5097476337
C             1.3300947072           -0.0940072556            0.1091947503
C             0.1572564276            0.0796456902            0.8750428006
C            -1.0990146815           -0.0452442943            0.1909665265
N            -1.1774563905           -0.3384063050           -1.1101015103
N            -2.4912252295           -0.3722728370           -1.4049402831
C            -3.2622598213           -0.1070438254           -0.3239226225
C            -2.4140315503            0.1090041175            0.7238915868
C             0.2293250038            0.3585756292            2.2198190917
S             1.6152451512            0.5323281061            3.1546341307
H             4.3194474200           -0.9419407695           -0.6814004137
H             3.3810904425           -0.9626614856           -2.1887622113
H             3.9957882144            0.5724957863           -1.5436016350
H            -2.7857178859           -0.5769146735           -2.3447373862
H            -4.3349434395           -0.0937684906           -0.3890279205
H            -2.6858803910            0.3462334245            1.7327467592
H            -0.7073054319            0.4829816535            2.7618072263
H            -0.4983429303           -0.5120429995           -1.7972111173
          19
 
C             3.5768967537           -0.4003469576           -1.2718602557
C             2.3526917009           -0.2342985133           -0.5097476337
C             1.3300947072           -0.0940072556            0.1091947503
C             0.1572564276            0.0796456902            0.8750428006
C            -1.0990146815           -0.0452442943            0.1909665265
N            -1.1774563905           -0.3384063050           -1.1101015103
N            -2.4912252295           -0.3722728370           -1.4049402831
C            -3.2622598213           -0.1070438254           -0.3239226225
C            -2.4140315503            0.1090041175            0.7238915868
C             0.2293250038            0.3585756292            2.2198190917
S             1.6152451512            0.5323281061            3.1546341307
H             4.3194474200           -0.9419407695           -0.6814004137
H             3.3810904425           -0.9626614856           -2.1887622113
H             3.9957882144            0.5724957863           -1.5436016350
H            -2.7857178859           -0.5769146735           -2.3447373862
H            -4.3349434395           -0.0937684906           -0.3890279205
H            -2.6858803910            0.3462334245            1.7327467592
H            -0.7073054319            0.4829816535            2.7618072263
H             1.0910261433            0.7478717978            2.7099028839
          19
 
C             3.5768967537           -0.4003469576           -1.2718602557
C             2.3526917009           -0.2342985133           -0.5097476337
C             1.3300947072           -0.0940072556            0.1091947503
C             0.1572564276            0.0796456902            0.8750428006
C            -1.0990146815           -0.0452442943            0.1909665265
N            -1.1774563905           -0.3384063050           -1.1101015103
N            -2.4912252295           -0.3722728370           -1.4049402831
C            -3.2622598213           -0.1070438254           -0.3239226225
C            -2.4140315503            0.1090041175            0.7238915868
C             0.2293250038            0.3585756292            2.2198190917
S             1.6152451512            0.5323281061            3.1546341307
H             4.3194474200           -0.9419407695           -0.6814004137
H             3.3810904425           -0.9626614856           -2.1887622113
H             3.9957882144            0.5724957863           -1.5436016350
H            -2.7857178859           -0.5769146735           -2.3447373862
H            -4.3349434395           -0.0937684906           -0.3890279205
H            -2.6858803910            0.3462334245            1.7327467592
H            -0.7073054319            0.4829816535            2.7618072263
H             1.0831616426            0.1720946520            2.8286121223
          19
 
C             3.5768967537           -0.4003469576           -1.2718602557
C             2.3526917009           -0.2342985133           -0.5097476337
C             1.3300947072           -0.0940072556            0.1091947503
C             0.1572564276            0.0796456902            0.8750428006
C            -1.0990146815           -0.0452442943            0.1909665265
N            -1.1774563905           -0.3384063050           -1.1101015103
N            -2.4912252295           -0.3722728370           -1.4049402831
C            -3.2622598213           -0.1070438254           -0.3239226225
C            -2.4140315503            0.1090041175            0.7238915868
C             0.2293250038            0.3585756292            2.2198190917
S             1.6152451512            0.5323281061            3.1546341307
H             4.3194474200           -0.9419407695           -0.6814004137
H             3.3810904425           -0.9626614856           -2.1887622113
H             3.9957882144            0.5724957863           -1.5436016350
H            -2.7857178859           -0.5769146735           -2.3447373862
H            -4.3349434395           -0.0937684906           -0.3890279205
H            -2.6858803910            0.3462334245            1.7327467592
H            -0.7073054319            0.4829816535            2.7618072263
H            -1.8416117105           -0.2182737350            0.5495567072
          19
 
C             3.5768967537           -0.4003469576           -1.2718602557
C             2.3526917009           -0.2342985133           -0.5097476337
C             1.3300947072           -0.0940072556            0.1091947503
C             0.1572564276            0.0796456902            0.8750428006
C            -1.0990146815           -0.0452442943            0.1909665265
N            -1.1774563905           -0.3384063050           -1.1101015103
N            -2.4912252295           -0.3722728370           -1.4049402831
C            -3.2622598213           -0.1070438254           -0.3239226225
C            -2.4140315503            0.1090041175            0.7238915868
C             0.2293250038            0.3585756292            2.2198190917
S             1.6152451512            0.5323281061            3.1546341307
H             4.3194474200           -0.9419407695           -0.6814004137
H             3.3810904425           -0.9626614856           -2.1887622113
H             3.9957882144            0.5724957863           -1.5436016350
H            -2.7857178859           -0.5769146735           -2.3447373862
H            -4.3349434395           -0.0937684906           -0.3890279205
H            -2.6858803910            0.3462334245            1.7327467592
H            -0.7073054319            0.4829816535            2.7618072263
H            -1.8379522627            0.3046954709            0.4250649782
          19
 
C             3.5768967537           -0.4003469576           -1.2718602557
C             2.3526917009           -0.2342985133           -0.5097476337
C             1.3300947072           -0.0940072556            0.1091947503
C             0.1572564276            0.0796456902            0.8750428006
C            -1.0990146815           -0.0452442943            0.1909665265
N            -1.1774563905           -0.3384063050           -1.1101015103
N            -2.4912252295           -0.3722728370           -1.4049402831
C            -3.2622598213           -0.1070438254           -0.3239226225
C            -2.4140315503            0.1090041175            0.7238915868
C             0.2293250038            0.3585756292            2.2198190917
S             1.6152451512            0.5323281061            3.1546341307
H             4.3194474200           -0.9419407695           -0.6814004137
H             3.3810904425           -0.9626614856           -2.1887622113
H             3.9957882144            0.5724957863           -1.5436016350
H            -2.7857178859           -0.5769146735           -2.3447373862
H            -4.3349434395           -0.0937684906           -0.3890279205
H            -2.6858803910            0.3462334245            1.7327467592
H            -0.7073054319            0.4829816535            2.7618072263
H            -2.8129986636           -0.5066791191           -0.8298284225
          19
 
C             3.5768967537           -0.4003469576           -1.2718602557
C             2.3526917009           -0.2342985133           -0.5097476337
C             1.3300947072           -0.0940072556            0.1091947503
C             0.1572564276            0.0796456902            0.8750428006
C            -1.0990146815           -0.0452442943            0.1909665265
N            -1.1774563905           -0.3384063050           -1.1101015103
N            -2.4912252295           -0.3722728370           -1.4049402831
C            -3.2622598213           -0.1070438254           -0.3239226225
C            -2.4140315503            0.1090041175            0.7238915868
C             0.2293250038            0.3585756292            2.2198190917
S             1.6152451512            0.5323281061            3.1546341307
H             4.3194474200           -0.9419407695           -0.6814004137
H             3.3810904425           -0.9626614856           -2.1887622113
H             3.9957882144            0.5724957863           -1.5436016350
H            -2.7857178859           -0.5769146735           -2.3447373862
H            -4.3349434395           -0.0937684906           -0.3890279205
H            -2.6858803910            0.3462334245            1.7327467592
H            -0.7073054319            0.4829816535            2.7618072263
H            -2.7881454705            0.0168552348           -0.9494213632
          19
 
C             3.5768967537           -0.4003469576           -1.2718602557
C             2.3526917009           -0.2342985133           -0.5097476337
C             1.3300947072           -0.0940072556            0.1091947503
C             0.1572564276            0.0796456902            0.8750428006
C            -1.0990146815           -0.0452442943            0.1909665265
N            -1.1774563905           -0.3384063050           -1.1101015103
N            -2.4912252295           -0.3722728370           -1.4049402831
C            -3.2622598213           -0.1070438254           -0.3239226225
C            -2.4140315503            0.1090041175            0.7238915868
C             0.2293250038            0.3585756292            2.2198190917
S             1.6152451512            0.5323281061            3.1546341307
H             4.3194474200           -0.9419407695           -0.6814004137
H             3.3810904425           -0.9626614856           -2.1887622113
H             3.9957882144            0.5724957863           -1.5436016350
H            -2.7857178859           -0.5769146735           -2.3447373862
H            -4.3349434395           -0.0937684906           -0.3890279205
H            -2.6858803910            0.3462334245            1.7327467592
H            -0.7073054319            0.4829816535            2.7618072263
H            -1.7748381663           -0.5827495210           -1.1583907089
          19
 
C             3.5768967537           -0.4003469576           -1.2718602557
C             2.3526917009           -0.2342985133           -0.5097476337
C             1.3300947072           -0.0940072556            0.1091947503
C             0.1572564276            0.0796456902            0.8750428006
C            -1.0990146815           -0.0452442943            0.1909665265
N            -1.1774563905           -0.3384063050           -1.1101015103
N            -2.4912252295           -0.3722728370           -1.4049402831
C            -3.2622598213           -0.1070438254           -0.3239226225
C            -2.4140315503            0.1090041175            0.7238915868
C             0.2293250038            0.3585756292            2.2198190917
S             1.6152451512            0.5323281061            3.1546341307
H             4.3194474200           -0.9419407695           -0.6814004137
H             3.3810904425           -0.9626614856           -2.1887622113
H             3.9957882144            0.5724957863           -1.5436016350
H            -2.7857178859           -0.5769146735           -2.3447373862
H            -4.3349434395           -0.0937684906           -0.3890279205
H            -2.6858803910            0.3462334245            1.7327467592
H            -0.7073054319            0.4829816535            2.7618072263
H            -1.7661727678           -0.1064926113           -1.2633125408
