energy: -30.276772130581 gnorm: 0.000934584798 xtb: 6.4.1 (afa7bdf)
 OpenBabel11022218133D

 19 20  0  0  0  0  0  0  0  0999 V2000
    2.5894   -0.4051    0.4710 C   0  0  0  0  0  0  0  0  0  0  0  0
    1.3353    0.1913    0.1998 C   0  0  0  0  0  0  0  0  0  0  0  0
    0.0205   -0.3994    0.3126 C   0  0  0  0  0  0  0  0  0  0  0  0
   -1.1821    0.3061    0.0190 C   0  0  0  0  0  0  0  0  0  0  0  0
   -2.3022   -0.4345    0.1943 C   0  0  0  0  0  0  0  0  0  0  0  0
   -1.9067   -2.0416    0.7329 S   0  0  0  0  0  0  0  0  0  0  0  0
   -0.2278   -1.6808    0.7093 C   0  0  0  0  0  0  0  0  0  0  0  0
   -3.7218   -0.0376   -0.0023 C   0  0  0  0  0  0  0  0  0  0  0  0
    1.5029    1.4473   -0.1975 N   0  0  0  0  0  0  0  0  0  0  0  0
    2.8131    1.6625   -0.1865 N   0  0  0  0  0  0  0  0  0  0  0  0
    3.5100    0.5760    0.2095 C   0  0  0  0  0  0  0  0  0  0  0  0
    2.7764   -1.4033    0.8069 H   0  0  0  0  0  0  0  0  0  0  0  0
   -1.1774    1.3289   -0.3096 H   0  0  0  0  0  0  0  0  0  0  0  0
    0.4722   -2.4411    0.9918 H   0  0  0  0  0  0  0  0  0  0  0  0
   -4.2270   -0.7295   -0.6762 H   0  0  0  0  0  0  0  0  0  0  0  0
   -3.7704    0.9647   -0.4220 H   0  0  0  0  0  0  0  0  0  0  0  0
   -4.2578   -0.0463    0.9474 H   0  0  0  0  0  0  0  0  0  0  0  0
    3.1740    2.5635   -0.4565 H   0  0  0  0  0  0  0  0  0  0  0  0
    4.5793    0.5791    0.2747 H   0  0  0  0  0  0  0  0  0  0  0  0
  1 12  1  0  0  0  0
  2  3  1  0  0  0  0
  2  1  1  0  0  0  0
  3  7  2  0  0  0  0
  4  5  2  0  0  0  0
  4  3  1  0  0  0  0
  5  6  1  0  0  0  0
  7  6  1  0  0  0  0
  7 14  1  0  0  0  0
  8  5  1  0  0  0  0
  8 17  1  0  0  0  0
  9 10  1  0  0  0  0
  9  2  2  0  0  0  0
 10 11  1  0  0  0  0
 11 19  1  0  0  0  0
 11  1  2  0  0  0  0
 13  4  1  0  0  0  0
 15  8  1  0  0  0  0
 16  8  1  0  0  0  0
 18 10  1  0  0  0  0
M  END
$$$$
