energy: -3.739396455599 gnorm: 0.000747544964 xtb: 6.4.1 (afa7bdf)
 OpenBabel11022218133D

 19 20  0  0  0  0  0  0  0  0999 V2000
    2.5789   -0.3872    0.4314 C   0  0  0  0  0  0  0  0  0  0  0  0
    1.3226    0.2297    0.2011 C   0  0  0  0  0  0  0  0  0  0  0  0
    0.0066   -0.4232    0.2965 C   0  0  0  0  0  0  0  0  0  0  0  0
   -1.2236    0.2767    0.0525 C   0  0  0  0  0  0  0  0  0  0  0  0
   -2.3316   -0.4882    0.1855 C   0  0  0  0  0  0  0  0  0  0  0  0
   -1.8783   -2.1127    0.6246 S   0  0  0  0  0  0  0  0  0  0  0  0
   -0.1932   -1.7286    0.6179 C   0  0  0  0  0  0  0  0  0  0  0  0
   -3.7194   -0.0258   -0.0003 C   0  0  0  0  0  0  0  0  0  0  0  0
    1.4958    1.5078   -0.1202 N   0  0  0  0  0  0  0  0  0  0  0  0
    2.8023    1.7041   -0.0978 N   0  0  0  0  0  0  0  0  0  0  0  0
    3.5166    0.5770    0.2343 C   0  0  0  0  0  0  0  0  0  0  0  0
    2.7525   -1.4142    0.7073 H   0  0  0  0  0  0  0  0  0  0  0  0
   -1.2506    1.3217   -0.2120 H   0  0  0  0  0  0  0  0  0  0  0  0
    0.5820   -2.4350    0.8397 H   0  0  0  0  0  0  0  0  0  0  0  0
   -4.4026   -0.8724   -0.0771 H   0  0  0  0  0  0  0  0  0  0  0  0
   -3.8149    0.5683   -0.9103 H   0  0  0  0  0  0  0  0  0  0  0  0
   -4.0394    0.5892    0.8421 H   0  0  0  0  0  0  0  0  0  0  0  0
    3.2081    2.6230   -0.3133 H   0  0  0  0  0  0  0  0  0  0  0  0
    4.5883    0.4898    0.3168 H   0  0  0  0  0  0  0  0  0  0  0  0
  1 12  1  0  0  0  0
  2  3  1  0  0  0  0
  2  1  1  0  0  0  0
  3  7  2  0  0  0  0
  4  5  2  0  0  0  0
  4  3  1  0  0  0  0
  5  6  1  0  0  0  0
  7  6  1  0  0  0  0
  7 14  1  0  0  0  0
  8  5  1  0  0  0  0
  8 17  1  0  0  0  0
  9 10  1  0  0  0  0
  9  2  2  0  0  0  0
 10 11  1  0  0  0  0
 11 19  1  0  0  0  0
 11  1  2  0  0  0  0
 13  4  1  0  0  0  0
 15  8  1  0  0  0  0
 16  8  1  0  0  0  0
 18 10  1  0  0  0  0
M  END
$$$$
