energy: -4.682582062788 gnorm: 0.000793893401 xtb: 6.4.1 (afa7bdf)
 OpenBabel11022218133D

 18 19  0  0  0  0  0  0  0  0999 V2000
   -3.7064   -0.0544    0.2406 C   0  0  0  0  0  0  0  0  0  0  0  0
   -2.3505   -0.4007   -0.2505 C   0  0  0  0  0  0  0  0  0  0  0  0
   -1.1889    0.0734    0.1751 C   0  0  0  0  0  3  0  0  0  0  0  0
    0.0063   -0.3852   -0.4162 C   0  0  0  0  0  0  0  0  0  0  0  0
    1.3778    0.0478   -0.0571 C   0  0  0  0  0  0  0  0  0  0  0  0
    2.4931   -0.4050   -0.6333 N   0  0  0  0  0  0  0  0  0  0  0  0
    3.4865    0.2354   -0.0230 N   0  0  0  0  0  0  0  0  0  0  0  0
    3.0537    1.1112    0.9544 C   0  0  0  0  0  0  0  0  0  0  0  0
    1.6950    1.0037    0.9468 C   0  0  0  0  0  0  0  0  0  0  0  0
   -0.2729   -1.3055   -1.3912 C   0  0  0  0  0  0  0  0  0  0  0  0
   -1.9969   -1.5766   -1.5498 S   0  0  0  0  0  0  0  0  0  0  0  0
   -3.7203    0.9413    0.6950 H   0  0  0  0  0  0  0  0  0  0  0  0
   -4.4323   -0.0588   -0.5787 H   0  0  0  0  0  0  0  0  0  0  0  0
   -4.0446   -0.7730    0.9937 H   0  0  0  0  0  0  0  0  0  0  0  0
    4.4715    0.0737   -0.2755 H   0  0  0  0  0  0  0  0  0  0  0  0
    3.6661    1.7412    1.5837 H   0  0  0  0  0  0  0  0  0  0  0  0
    0.9928    1.5339    1.5736 H   0  0  0  0  0  0  0  0  0  0  0  0
    0.4697   -1.8024   -1.9876 H   0  0  0  0  0  0  0  0  0  0  0  0
  1 12  1  0  0  0  0
  1 14  1  0  0  0  0
  2  3  2  0  0  0  0
  2  1  1  0  0  0  0
  4  5  1  0  0  0  0
  4  3  1  0  0  0  0
  5  9  1  0  0  0  0
  6  5  2  0  0  0  0
  6  7  1  0  0  0  0
  7  8  1  0  0  0  0
  8 16  1  0  0  0  0
  9  8  2  0  0  0  0
  9 17  1  0  0  0  0
 10  4  2  0  0  0  0
 11 10  1  0  0  0  0
 11  2  1  0  0  0  0
 13  1  1  0  0  0  0
 15  7  1  0  0  0  0
 18 10  1  0  0  0  0
M  END
$$$$
